BRL.pdb
  rDOCK(R)          3D
libRbt.so/2013.1/901 2013/11/27
 26 28  0  0  0  0  0  0  0  0999 V2000
   14.9922   -6.1357   16.5491 S   0  0  0  0  0  0
   12.9811   -5.0179   15.1890 O   0  0  0  0  0  0
   16.6784   -6.2444   12.9903 O   0  0  0  0  0  0
   12.6407  -11.8038   13.5533 O   0  0  0  0  0  0
   14.7105   -5.5921   13.9217 N   0  0  0  0  0  0
   10.9945  -10.5410   11.3168 N   0  0  0  0  0  0
    9.7490   -8.4918   12.3417 N   0  0  0  0  0  0
   14.1088   -5.5014   15.0975 C   0  0  0  0  0  0
   15.9271   -6.1519   13.9751 C   0  0  0  0  0  0
   16.3343   -6.6320   15.3752 C   0  0  0  0  0  0
   16.7218   -8.1685   15.4711 C   0  0  0  0  0  0
   15.7203   -9.1967   14.9834 C   0  0  0  0  0  0
   14.7077   -9.7830   15.8538 C   0  0  0  0  0  0
   13.7205  -10.6525   15.3006 C   0  0  0  0  0  0
   13.7214  -10.9710   13.8904 C   0  0  0  0  0  0
   14.7945  -10.4392   13.0451 C   0  0  0  0  0  0
   15.7829   -9.5570   13.5854 C   0  0  0  0  0  0
   12.3335  -12.5963   12.3513 C   0  0  0  0  0  0
   12.1606  -11.5272   11.2520 C   0  0  0  0  0  0
    9.9117  -11.0155   10.3366 C   0  0  0  0  0  0
   10.9401   -9.1758   12.1383 C   0  0  0  0  0  0
    9.6326   -7.3387   13.0529 C   0  0  0  0  0  0
   10.7946   -6.7278   13.6611 C   0  0  0  0  0  0
   12.0689   -7.3602   13.4979 C   0  0  0  0  0  0
   12.1506   -8.5770   12.7400 C   0  0  0  0  0  0
   14.3011   -5.2767   13.0837 H   0  0  0  0  0  0
  1  8  1  0  0  0
  1 10  1  0  0  0
  2  8  2  0  0  0
  3  9  2  0  0  0
  4 15  1  0  0  0
  4 18  1  0  0  0
  5  8  1  0  0  0
  5  9  1  0  0  0
  5 26  1  0  0  0
  6 19  1  0  0  0
  6 20  1  0  0  0
  6 21  1  0  0  0
  7 21  2  0  0  0
  7 22  1  0  0  0
  9 10  1  0  0  0
 10 11  1  0  0  0
 11 12  1  0  0  0
 12 13  2  0  0  0
 12 17  1  0  0  0
 13 14  1  0  0  0
 14 15  2  0  0  0
 15 16  1  0  0  0
 16 17  2  0  0  0
 18 19  1  0  0  0
 21 25  1  0  0  0
 22 23  2  0  0  0
 23 24  1  0  0  0
 24 25  2  0  0  0
M  END
>  <CHROM.0>
-93.53386600,66.23219848,-55.96986427,-178.22770692,33.01969228,-178.64485385

>  <CHROM.1>
-166.90556144,-64.37758394,-101.45167477,-166.94370798,69.50105265,-89.93179598
-66.21136160,13.43901812,-8.47810803,13.77889717,0.81562239,-0.43909480,0.28031075

>  <FORMUL>
      BRL    C18 H19 N3 O3 S1

>  <HET>
 BRL  A   1      25

>  <HETNAM>
     BRL 2,4-THIAZOLIDIINEDIONE, 5-[[4-[2-(METHYL-2-PYRIDINYLAMI
   2 BRL NO)ETHOXY]PHENYL]METHYL]-(9CL)

>  <HETSYN>
     BRL BRL49653; ROSIGLITAZONE

>  <Name>
BRL.pdb

>  <RI>
3.46961e+07

>  <Rbt.Current_Directory>
/home/malgorzata/Desktop/rDOCK_IFD/Wyniki/13_ppar-gamma/IFD

>  <Rbt.Executable>
rbdock ($Id: //depot/dev/client3/rdock/2013.1/src/exe/rbdock.cxx#4 $)

>  <Rbt.Library>
libRbt.so (2013.1, Build901 2013/11/27)

>  <Rbt.Parameter_File>
/home/malgorzata/Desktop/rDock_2013.1_src/data/scripts/dock.prm

>  <Rbt.Receptor>
cavity.prm

>  <SCORE>
-54.3834

>  <SCORE.INTER>
-12.795

>  <SCORE.INTER.CONST>
1

>  <SCORE.INTER.POLAR>
-0.517585

>  <SCORE.INTER.REPUL>
0

>  <SCORE.INTER.ROT>
7

>  <SCORE.INTER.VDW>
-23.4352

>  <SCORE.INTER.norm>
-0.511801

>  <SCORE.INTRA>
-3.1792

>  <SCORE.INTRA.DIHEDRAL>
-0.885695

>  <SCORE.INTRA.DIHEDRAL.0>
5.55665

>  <SCORE.INTRA.POLAR>
0

>  <SCORE.INTRA.POLAR.0>
0

>  <SCORE.INTRA.REPUL>
0

>  <SCORE.INTRA.REPUL.0>
0

>  <SCORE.INTRA.VDW>
-2.73636

>  <SCORE.INTRA.VDW.0>
-2.56587

>  <SCORE.INTRA.norm>
-0.127168

>  <SCORE.RESTR>
0

>  <SCORE.RESTR.CAVITY>
0

>  <SCORE.RESTR.norm>
0

>  <SCORE.SYSTEM>
-38.4092

>  <SCORE.SYSTEM.CONST>
0

>  <SCORE.SYSTEM.DIHEDRAL>
2.19152

>  <SCORE.SYSTEM.POLAR>
-0.627669

>  <SCORE.SYSTEM.REPUL>
0.0175755

>  <SCORE.SYSTEM.VDW>
-37.4588

>  <SCORE.SYSTEM.norm>
-1.53637

>  <SCORE.heavy>
25

>  <SCORE.norm>
-2.17534

$$$$
BRL.pdb
  rDOCK(R)          3D
libRbt.so/2013.1/901 2013/11/27
 26 28  0  0  0  0  0  0  0  0999 V2000
   13.9055   -5.6839   15.2148 S   0  0  0  0  0  0
   11.2564   -5.8848   15.5081 O   0  0  0  0  0  0
   12.9782   -5.6552   11.3861 O   0  0  0  0  0  0
   13.0900  -12.1454   12.4378 O   0  0  0  0  0  0
   11.9218   -5.8216   13.3916 N   0  0  0  0  0  0
    9.8867  -12.3617   10.3675 N   0  0  0  0  0  0
    7.3348  -11.8276   10.3055 N   0  0  0  0  0  0
   12.1731   -5.8039   14.6913 C   0  0  0  0  0  0
   13.0180   -5.7397   12.6246 C   0  0  0  0  0  0
   14.3341   -5.7138   13.4145 C   0  0  0  0  0  0
   15.3697   -6.8538   13.0301 C   0  0  0  0  0  0
   14.8456   -8.2584   12.8052 C   0  0  0  0  0  0
   15.2198   -9.3829   13.6550 C   0  0  0  0  0  0
   14.5949  -10.6513   13.4612 C   0  0  0  0  0  0
   13.6066  -10.8386   12.4228 C   0  0  0  0  0  0
   13.3026   -9.7204   11.5249 C   0  0  0  0  0  0
   13.9133   -8.4408   11.7163 C   0  0  0  0  0  0
   11.7289  -12.6784   12.2630 C   0  0  0  0  0  0
   11.3136  -12.1515   10.8733 C   0  0  0  0  0  0
    9.8960  -13.5435    9.3868 C   0  0  0  0  0  0
    8.6182  -11.4457   10.6731 C   0  0  0  0  0  0
    6.2116  -11.1045   10.5593 C   0  0  0  0  0  0
    6.2923   -9.8371   11.2526 C   0  0  0  0  0  0
    7.5777   -9.3590   11.6644 C   0  0  0  0  0  0
    8.7401  -10.1519   11.3782 C   0  0  0  0  0  0
   11.0119   -5.8888   13.0218 H   0  0  0  0  0  0
  1  8  1  0  0  0
  1 10  1  0  0  0
  2  8  2  0  0  0
  3  9  2  0  0  0
  4 15  1  0  0  0
  4 18  1  0  0  0
  5  8  1  0  0  0
  5  9  1  0  0  0
  5 26  1  0  0  0
  6 19  1  0  0  0
  6 20  1  0  0  0
  6 21  1  0  0  0
  7 21  2  0  0  0
  7 22  1  0  0  0
  9 10  1  0  0  0
 10 11  1  0  0  0
 11 12  1  0  0  0
 12 13  2  0  0  0
 12 17  1  0  0  0
 13 14  1  0  0  0
 14 15  2  0  0  0
 15 16  1  0  0  0
 16 17  2  0  0  0
 18 19  1  0  0  0
 21 25  1  0  0  0
 22 23  2  0  0  0
 23 24  1  0  0  0
 24 25  2  0  0  0
M  END
>  <CHROM.0>
-96.06708073,67.43850605,66.81883025,178.55572668,-139.05373825,-175.94441644

>  <CHROM.1>
138.98601115,57.54963371,-100.81730889,-171.37037356,82.14517523,-115.89198394
-173.48664977,11.75628476,-9.06286729,12.39207608,0.86701146,-0.18265958
0.38697051

>  <FORMUL>
      BRL    C18 H19 N3 O3 S1

>  <HET>
 BRL  A   1      25

>  <HETNAM>
     BRL 2,4-THIAZOLIDIINEDIONE, 5-[[4-[2-(METHYL-2-PYRIDINYLAMI
   2 BRL NO)ETHOXY]PHENYL]METHYL]-(9CL)

>  <HETSYN>
     BRL BRL49653; ROSIGLITAZONE

>  <Name>
BRL.pdb

>  <RI>
3.46961e+07

>  <Rbt.Current_Directory>
/home/malgorzata/Desktop/rDOCK_IFD/Wyniki/13_ppar-gamma/IFD

>  <Rbt.Executable>
rbdock ($Id: //depot/dev/client3/rdock/2013.1/src/exe/rbdock.cxx#4 $)

>  <Rbt.Library>
libRbt.so (2013.1, Build901 2013/11/27)

>  <Rbt.Parameter_File>
/home/malgorzata/Desktop/rDock_2013.1_src/data/scripts/dock.prm

>  <Rbt.Receptor>
cavity.prm

>  <SCORE>
-54.198

>  <SCORE.INTER>
-15.0442

>  <SCORE.INTER.CONST>
1

>  <SCORE.INTER.POLAR>
-0.8

>  <SCORE.INTER.REPUL>
0

>  <SCORE.INTER.ROT>
7

>  <SCORE.INTER.VDW>
-24.7242

>  <SCORE.INTER.norm>
-0.601769

>  <SCORE.INTRA>
1.19204

>  <SCORE.INTRA.DIHEDRAL>
1.72586

>  <SCORE.INTRA.DIHEDRAL.0>
5.55665

>  <SCORE.INTRA.POLAR>
0

>  <SCORE.INTRA.POLAR.0>
0

>  <SCORE.INTRA.REPUL>
0

>  <SCORE.INTRA.REPUL.0>
0

>  <SCORE.INTRA.VDW>
0.329111

>  <SCORE.INTRA.VDW.0>
-2.56587

>  <SCORE.INTRA.norm>
0.0476816

>  <SCORE.RESTR>
0

>  <SCORE.RESTR.CAVITY>
0

>  <SCORE.RESTR.norm>
0

>  <SCORE.SYSTEM>
-40.3458

>  <SCORE.SYSTEM.CONST>
0

>  <SCORE.SYSTEM.DIHEDRAL>
3.70019

>  <SCORE.SYSTEM.POLAR>
-1.38024

>  <SCORE.SYSTEM.VDW>
-37.5031

>  <SCORE.SYSTEM.norm>
-1.61383

>  <SCORE.heavy>
25

>  <SCORE.norm>
-2.16792

$$$$
BRL.pdb
  rDOCK(R)          3D
libRbt.so/2013.1/901 2013/11/27
 26 28  0  0  0  0  0  0  0  0999 V2000
   10.0319  -12.3415    9.4571 S   0  0  0  0  0  0
    7.3904  -11.9343    9.4905 O   0  0  0  0  0  0
    9.3206  -13.9832   12.9669 O   0  0  0  0  0  0
   11.0676   -6.5748   12.5605 O   0  0  0  0  0  0
    8.1674  -12.9288   11.3164 N   0  0  0  0  0  0
   13.5655   -5.4992   15.1007 N   0  0  0  0  0  0
   14.7138   -7.8371   14.9714 N   0  0  0  0  0  0
    8.3437  -12.3938   10.1183 C   0  0  0  0  0  0
    9.2966  -13.3745   11.8844 C   0  0  0  0  0  0
   10.5616  -13.1068   11.0569 C   0  0  0  0  0  0
   11.6925  -12.2837   11.8074 C   0  0  0  0  0  0
   11.5452  -10.7781   11.9038 C   0  0  0  0  0  0
   10.2488  -10.1109   11.8716 C   0  0  0  0  0  0
   10.1753   -8.7025   12.0896 C   0  0  0  0  0  0
   11.3720   -7.9268   12.3269 C   0  0  0  0  0  0
   12.6736   -8.5992   12.2742 C   0  0  0  0  0  0
   12.7597  -10.0124   12.0684 C   0  0  0  0  0  0
   11.8750   -5.4432   13.0449 C   0  0  0  0  0  0
   12.1990   -5.8326   14.5026 C   0  0  0  0  0  0
   13.5859   -4.0020   15.4422 C   0  0  0  0  0  0
   14.8184   -6.4767   15.2291 C   0  0  0  0  0  0
   15.7480   -8.7173   15.0385 C   0  0  0  0  0  0
   17.0744   -8.2691   15.4035 C   0  0  0  0  0  0
   17.2758   -6.8816   15.6942 C   0  0  0  0  0  0
   16.1585   -5.9834   15.6120 C   0  0  0  0  0  0
    7.2864  -12.9934   11.7508 H   0  0  0  0  0  0
  1  8  1  0  0  0
  1 10  1  0  0  0
  2  8  2  0  0  0
  3  9  2  0  0  0
  4 15  1  0  0  0
  4 18  1  0  0  0
  5  8  1  0  0  0
  5  9  1  0  0  0
  5 26  1  0  0  0
  6 19  1  0  0  0
  6 20  1  0  0  0
  6 21  1  0  0  0
  7 21  2  0  0  0
  7 22  1  0  0  0
  9 10  1  0  0  0
 10 11  1  0  0  0
 11 12  1  0  0  0
 12 13  2  0  0  0
 12 17  1  0  0  0
 13 14  1  0  0  0
 14 15  2  0  0  0
 15 16  1  0  0  0
 16 17  2  0  0  0
 18 19  1  0  0  0
 21 25  1  0  0  0
 22 23  2  0  0  0
 23 24  1  0  0  0
 24 25  2  0  0  0
M  END
>  <CHROM.0>
-89.96737391,68.93846267,-174.39433925,179.23296982,-135.09201047,-175.83466952

>  <CHROM.1>
169.13125717,-66.33877944,76.65625215,-9.87364615,44.74586391,26.42948384
142.83421108,11.89635581,-9.36025434,12.74148214,-2.31350204,-0.49773215
0.19281442

>  <FORMUL>
      BRL    C18 H19 N3 O3 S1

>  <HET>
 BRL  A   1      25

>  <HETNAM>
     BRL 2,4-THIAZOLIDIINEDIONE, 5-[[4-[2-(METHYL-2-PYRIDINYLAMI
   2 BRL NO)ETHOXY]PHENYL]METHYL]-(9CL)

>  <HETSYN>
     BRL BRL49653; ROSIGLITAZONE

>  <Name>
BRL.pdb

>  <RI>
3.46961e+07

>  <Rbt.Current_Directory>
/home/malgorzata/Desktop/rDOCK_IFD/Wyniki/13_ppar-gamma/IFD

>  <Rbt.Executable>
rbdock ($Id: //depot/dev/client3/rdock/2013.1/src/exe/rbdock.cxx#4 $)

>  <Rbt.Library>
libRbt.so (2013.1, Build901 2013/11/27)

>  <Rbt.Parameter_File>
/home/malgorzata/Desktop/rDock_2013.1_src/data/scripts/dock.prm

>  <Rbt.Receptor>
cavity.prm

>  <SCORE>
-55.1096

>  <SCORE.INTER>
-17.4324

>  <SCORE.INTER.CONST>
1

>  <SCORE.INTER.POLAR>
-1.07632

>  <SCORE.INTER.REPUL>
0

>  <SCORE.INTER.ROT>
7

>  <SCORE.INTER.VDW>
-26.1729

>  <SCORE.INTER.norm>
-0.697295

>  <SCORE.INTRA>
1.50463

>  <SCORE.INTRA.DIHEDRAL>
3.09027

>  <SCORE.INTRA.DIHEDRAL.0>
5.55665

>  <SCORE.INTRA.POLAR>
0

>  <SCORE.INTRA.POLAR.0>
0

>  <SCORE.INTRA.REPUL>
0

>  <SCORE.INTRA.REPUL.0>
0

>  <SCORE.INTRA.VDW>
-0.0405005

>  <SCORE.INTRA.VDW.0>
-2.56587

>  <SCORE.INTRA.norm>
0.0601854

>  <SCORE.RESTR>
0

>  <SCORE.RESTR.CAVITY>
0

>  <SCORE.RESTR.norm>
0

>  <SCORE.SYSTEM>
-39.1819

>  <SCORE.SYSTEM.CONST>
0

>  <SCORE.SYSTEM.DIHEDRAL>
4.0341

>  <SCORE.SYSTEM.POLAR>
-1.07919

>  <SCORE.SYSTEM.VDW>
-37.5297

>  <SCORE.SYSTEM.norm>
-1.56727

>  <SCORE.heavy>
25

>  <SCORE.norm>
-2.20438

$$$$
BRL.pdb
  rDOCK(R)          3D
libRbt.so/2013.1/901 2013/11/27
 26 28  0  0  0  0  0  0  0  0999 V2000
    8.7619   -4.8851   12.2726 S   0  0  0  0  0  0
   11.0892   -3.6576   11.8025 O   0  0  0  0  0  0
   10.4878   -5.7619   15.7037 O   0  0  0  0  0  0
   12.5663  -10.9166   11.8144 O   0  0  0  0  0  0
   10.9945   -4.6758   13.7725 N   0  0  0  0  0  0
   13.8599  -10.8709   14.4228 N   0  0  0  0  0  0
   14.8639   -9.7713   12.2818 N   0  0  0  0  0  0
   10.4525   -4.3254   12.6166 C   0  0  0  0  0  0
   10.1885   -5.4122   14.5501 C   0  0  0  0  0  0
    8.8367   -5.7515   13.9065 C   0  0  0  0  0  0
    8.5071   -7.3016   13.8157 C   0  0  0  0  0  0
    9.5393   -8.2234   13.1968 C   0  0  0  0  0  0
   10.9210   -7.8166   12.9685 C   0  0  0  0  0  0
   11.8685   -8.7733   12.4957 C   0  0  0  0  0  0
   11.4717  -10.1370   12.2258 C   0  0  0  0  0  0
   10.0621  -10.5082   12.3819 C   0  0  0  0  0  0
    9.1051   -9.5616   12.8665 C   0  0  0  0  0  0
   13.0831  -12.2199   12.2631 C   0  0  0  0  0  0
   13.1480  -12.0704   13.7976 C   0  0  0  0  0  0
   13.5605  -10.8686   15.9290 C   0  0  0  0  0  0
   14.6606   -9.7262   13.6546 C   0  0  0  0  0  0
   15.5150   -8.8161   11.5659 C   0  0  0  0  0  0
   16.0626   -7.6488   12.2223 C   0  0  0  0  0  0
   15.9068   -7.5203   13.6399 C   0  0  0  0  0  0
   15.2126   -8.5503   14.3604 C   0  0  0  0  0  0
   11.9072   -4.4186   14.0372 H   0  0  0  0  0  0
  1  8  1  0  0  0
  1 10  1  0  0  0
  2  8  2  0  0  0
  3  9  2  0  0  0
  4 15  1  0  0  0
  4 18  1  0  0  0
  5  8  1  0  0  0
  5  9  1  0  0  0
  5 26  1  0  0  0
  6 19  1  0  0  0
  6 20  1  0  0  0
  6 21  1  0  0  0
  7 21  2  0  0  0
  7 22  1  0  0  0
  9 10  1  0  0  0
 10 11  1  0  0  0
 11 12  1  0  0  0
 12 13  2  0  0  0
 12 17  1  0  0  0
 13 14  1  0  0  0
 14 15  2  0  0  0
 15 16  1  0  0  0
 16 17  2  0  0  0
 18 19  1  0  0  0
 21 25  1  0  0  0
 22 23  2  0  0  0
 23 24  1  0  0  0
 24 25  2  0  0  0
M  END
>  <CHROM.0>
-85.65501537,-174.97965776,-176.41618233,-179.18665388,-94.20469283,-178.21125239

>  <CHROM.1>
129.39769964,-49.18994188,170.67366627,-4.49525809,72.86724067,14.57281682
-51.53895211,11.86408746,-8.05096377,13.18773948,2.29405564,-0.00124725,-0.01185617

>  <FORMUL>
      BRL    C18 H19 N3 O3 S1

>  <HET>
 BRL  A   1      25

>  <HETNAM>
     BRL 2,4-THIAZOLIDIINEDIONE, 5-[[4-[2-(METHYL-2-PYRIDINYLAMI
   2 BRL NO)ETHOXY]PHENYL]METHYL]-(9CL)

>  <HETSYN>
     BRL BRL49653; ROSIGLITAZONE

>  <Name>
BRL.pdb

>  <RI>
3.46961e+07

>  <Rbt.Current_Directory>
/home/malgorzata/Desktop/rDOCK_IFD/Wyniki/13_ppar-gamma/IFD

>  <Rbt.Executable>
rbdock ($Id: //depot/dev/client3/rdock/2013.1/src/exe/rbdock.cxx#4 $)

>  <Rbt.Library>
libRbt.so (2013.1, Build901 2013/11/27)

>  <Rbt.Parameter_File>
/home/malgorzata/Desktop/rDock_2013.1_src/data/scripts/dock.prm

>  <Rbt.Receptor>
cavity.prm

>  <SCORE>
-53.026

>  <SCORE.INTER>
-14.4954

>  <SCORE.INTER.CONST>
1

>  <SCORE.INTER.POLAR>
-1.52063

>  <SCORE.INTER.REPUL>
0.0928482

>  <SCORE.INTER.ROT>
7

>  <SCORE.INTER.VDW>
-22.1895

>  <SCORE.INTER.norm>
-0.579817

>  <SCORE.INTRA>
-0.152478

>  <SCORE.INTRA.DIHEDRAL>
1.89241

>  <SCORE.INTRA.DIHEDRAL.0>
5.55665

>  <SCORE.INTRA.POLAR>
0

>  <SCORE.INTRA.POLAR.0>
0

>  <SCORE.INTRA.REPUL>
0.00459504

>  <SCORE.INTRA.REPUL.0>
0

>  <SCORE.INTRA.VDW>
-1.12166

>  <SCORE.INTRA.VDW.0>
-2.56587

>  <SCORE.INTRA.norm>
-0.00609913

>  <SCORE.RESTR>
0

>  <SCORE.RESTR.CAVITY>
0

>  <SCORE.RESTR.norm>
0

>  <SCORE.SYSTEM>
-38.3781

>  <SCORE.SYSTEM.CONST>
0

>  <SCORE.SYSTEM.DIHEDRAL>
2.78333

>  <SCORE.SYSTEM.POLAR>
-0.755778

>  <SCORE.SYSTEM.VDW>
-37.2001

>  <SCORE.SYSTEM.norm>
-1.53512

>  <SCORE.heavy>
25

>  <SCORE.norm>
-2.12104

$$$$
BRL.pdb
  rDOCK(R)          3D
libRbt.so/2013.1/901 2013/11/27
 26 28  0  0  0  0  0  0  0  0999 V2000
    8.9458  -13.2322   12.0855 S   0  0  0  0  0  0
   11.4823  -13.6810   11.3723 O   0  0  0  0  0  0
    8.3572  -13.3279    8.1914 O   0  0  0  0  0  0
    9.0634   -6.9107   13.2061 O   0  0  0  0  0  0
   10.0871  -13.4989    9.6556 N   0  0  0  0  0  0
   11.5739   -5.2874   14.0453 N   0  0  0  0  0  0
   11.6991   -7.7940   13.3366 N   0  0  0  0  0  0
   10.3375  -13.5081   10.9556 C   0  0  0  0  0  0
    8.7992  -13.2861    9.3514 C   0  0  0  0  0  0
    7.9023  -13.0288   10.5704 C   0  0  0  0  0  0
    7.0989  -11.6601   10.5353 C   0  0  0  0  0  0
    7.6532  -10.4784   11.3062 C   0  0  0  0  0  0
    8.9319   -9.8571   10.9812 C   0  0  0  0  0  0
    9.3355   -8.6734   11.6687 C   0  0  0  0  0  0
    8.4988   -8.0915   12.6941 C   0  0  0  0  0  0
    7.2560   -8.7743   13.0657 C   0  0  0  0  0  0
    6.8347   -9.9548   12.3759 C   0  0  0  0  0  0
    9.2102   -6.3915   14.5758 C   0  0  0  0  0  0
   10.0924   -5.1389   14.3913 C   0  0  0  0  0  0
   12.2797   -3.9673   14.3877 C   0  0  0  0  0  0
   12.2685   -6.5277   13.3236 C   0  0  0  0  0  0
   12.2278   -8.8846   12.7201 C   0  0  0  0  0  0
   13.4714   -8.7861   11.9874 C   0  0  0  0  0  0
   14.1348   -7.5186   11.9257 C   0  0  0  0  0  0
   13.5444   -6.3905   12.5895 C   0  0  0  0  0  0
   10.7840  -13.6359    8.9739 H   0  0  0  0  0  0
  1  8  1  0  0  0
  1 10  1  0  0  0
  2  8  2  0  0  0
  3  9  2  0  0  0
  4 15  1  0  0  0
  4 18  1  0  0  0
  5  8  1  0  0  0
  5  9  1  0  0  0
  5 26  1  0  0  0
  6 19  1  0  0  0
  6 20  1  0  0  0
  6 21  1  0  0  0
  7 21  2  0  0  0
  7 22  1  0  0  0
  9 10  1  0  0  0
 10 11  1  0  0  0
 11 12  1  0  0  0
 12 13  2  0  0  0
 12 17  1  0  0  0
 13 14  1  0  0  0
 14 15  2  0  0  0
 15 16  1  0  0  0
 16 17  2  0  0  0
 18 19  1  0  0  0
 21 25  1  0  0  0
 22 23  2  0  0  0
 23 24  1  0  0  0
 24 25  2  0  0  0
M  END
>  <CHROM.0>
105.74796616,-174.58601531,73.29925693,178.32122072,161.05489751,-175.91040971

>  <CHROM.1>
-136.49968086,172.57983955,-161.12064797,-22.72973343,25.82585465,63.69964613
-71.65141639,9.99534760,-9.58799763,12.04926296,1.91120321,-0.06832448,-2.69070378

>  <FORMUL>
      BRL    C18 H19 N3 O3 S1

>  <HET>
 BRL  A   1      25

>  <HETNAM>
     BRL 2,4-THIAZOLIDIINEDIONE, 5-[[4-[2-(METHYL-2-PYRIDINYLAMI
   2 BRL NO)ETHOXY]PHENYL]METHYL]-(9CL)

>  <HETSYN>
     BRL BRL49653; ROSIGLITAZONE

>  <Name>
BRL.pdb

>  <RI>
3.46961e+07

>  <Rbt.Current_Directory>
/home/malgorzata/Desktop/rDOCK_IFD/Wyniki/13_ppar-gamma/IFD

>  <Rbt.Executable>
rbdock ($Id: //depot/dev/client3/rdock/2013.1/src/exe/rbdock.cxx#4 $)

>  <Rbt.Library>
libRbt.so (2013.1, Build901 2013/11/27)

>  <Rbt.Parameter_File>
/home/malgorzata/Desktop/rDock_2013.1_src/data/scripts/dock.prm

>  <Rbt.Receptor>
cavity.prm

>  <SCORE>
-51.7013

>  <SCORE.INTER>
-14.081

>  <SCORE.INTER.CONST>
1

>  <SCORE.INTER.POLAR>
0

>  <SCORE.INTER.REPUL>
0

>  <SCORE.INTER.ROT>
7

>  <SCORE.INTER.VDW>
-26.481

>  <SCORE.INTER.norm>
-0.563239

>  <SCORE.INTRA>
1.7614

>  <SCORE.INTRA.DIHEDRAL>
5.55776

>  <SCORE.INTRA.DIHEDRAL.0>
5.55665

>  <SCORE.INTRA.POLAR>
0

>  <SCORE.INTRA.POLAR.0>
0

>  <SCORE.INTRA.REPUL>
0

>  <SCORE.INTRA.REPUL.0>
0

>  <SCORE.INTRA.VDW>
-1.01748

>  <SCORE.INTRA.VDW.0>
-2.56587

>  <SCORE.INTRA.norm>
0.0704561

>  <SCORE.RESTR>
0

>  <SCORE.RESTR.CAVITY>
0

>  <SCORE.RESTR.norm>
0

>  <SCORE.SYSTEM>
-39.3818

>  <SCORE.SYSTEM.CONST>
0

>  <SCORE.SYSTEM.DIHEDRAL>
2.22393

>  <SCORE.SYSTEM.POLAR>
-1.15166

>  <SCORE.SYSTEM.VDW>
-36.5781

>  <SCORE.SYSTEM.norm>
-1.57527

>  <SCORE.heavy>
25

>  <SCORE.norm>
-2.06805

$$$$
BRL.pdb
  rDOCK(R)          3D
libRbt.so/2013.1/901 2013/11/27
 26 28  0  0  0  0  0  0  0  0999 V2000
   14.9628   -6.8536   14.5743 S   0  0  0  0  0  0
   16.1687   -4.5994   15.3544 O   0  0  0  0  0  0
   18.3440   -8.4860   15.7668 O   0  0  0  0  0  0
   11.5085  -11.2397   11.0701 O   0  0  0  0  0  0
   17.4188   -6.4166   15.6015 N   0  0  0  0  0  0
    8.3763  -11.2445   11.1473 N   0  0  0  0  0  0
    7.5206   -9.2253   12.5585 N   0  0  0  0  0  0
   16.2925   -5.8187   15.2458 C   0  0  0  0  0  0
   17.4127   -7.7438   15.4140 C   0  0  0  0  0  0
   16.1295   -8.2780   14.7624 C   0  0  0  0  0  0
   16.3493   -9.0965   13.4201 C   0  0  0  0  0  0
   15.1414   -9.7209   12.7500 C   0  0  0  0  0  0
   14.3751  -10.8019   13.3592 C   0  0  0  0  0  0
   13.1787  -11.2593   12.7299 C   0  0  0  0  0  0
   12.7253  -10.6742   11.4880 C   0  0  0  0  0  0
   13.5505   -9.6460   10.8471 C   0  0  0  0  0  0
   14.7456   -9.1706   11.4738 C   0  0  0  0  0  0
   10.7402  -12.4043   11.5397 C   0  0  0  0  0  0
    9.4139  -12.2972   10.7581 C   0  0  0  0  0  0
    7.1202  -11.4724   10.2936 C   0  0  0  0  0  0
    8.5809  -10.0251   12.1537 C   0  0  0  0  0  0
    7.6251   -8.1885   13.4320 C   0  0  0  0  0  0
    8.9040   -7.8397   14.0117 C   0  0  0  0  0  0
   10.0569   -8.6063   13.6462 C   0  0  0  0  0  0
    9.9054   -9.6938   12.7209 C   0  0  0  0  0  0
   18.1912   -5.9303   15.9704 H   0  0  0  0  0  0
  1  8  1  0  0  0
  1 10  1  0  0  0
  2  8  2  0  0  0
  3  9  2  0  0  0
  4 15  1  0  0  0
  4 18  1  0  0  0
  5  8  1  0  0  0
  5  9  1  0  0  0
  5 26  1  0  0  0
  6 19  1  0  0  0
  6 20  1  0  0  0
  6 21  1  0  0  0
  7 21  2  0  0  0
  7 22  1  0  0  0
  9 10  1  0  0  0
 10 11  1  0  0  0
 11 12  1  0  0  0
 12 13  2  0  0  0
 12 17  1  0  0  0
 13 14  1  0  0  0
 14 15  2  0  0  0
 15 16  1  0  0  0
 16 17  2  0  0  0
 18 19  1  0  0  0
 21 25  1  0  0  0
 22 23  2  0  0  0
 23 24  1  0  0  0
 24 25  2  0  0  0
M  END
>  <CHROM.0>
-97.35676433,67.28470523,63.47255953,178.78557615,-15.18755042,-175.53847743

>  <CHROM.1>
-10.01009032,171.83514364,-174.38349017,-171.99263949,-58.65644021,-66.07450310
-74.42376745,12.79942143,-9.10170390,13.13016162,0.53509655,-0.10438860,0.58482266

>  <FORMUL>
      BRL    C18 H19 N3 O3 S1

>  <HET>
 BRL  A   1      25

>  <HETNAM>
     BRL 2,4-THIAZOLIDIINEDIONE, 5-[[4-[2-(METHYL-2-PYRIDINYLAMI
   2 BRL NO)ETHOXY]PHENYL]METHYL]-(9CL)

>  <HETSYN>
     BRL BRL49653; ROSIGLITAZONE

>  <Name>
BRL.pdb

>  <RI>
3.46961e+07

>  <Rbt.Current_Directory>
/home/malgorzata/Desktop/rDOCK_IFD/Wyniki/13_ppar-gamma/IFD

>  <Rbt.Executable>
rbdock ($Id: //depot/dev/client3/rdock/2013.1/src/exe/rbdock.cxx#4 $)

>  <Rbt.Library>
libRbt.so (2013.1, Build901 2013/11/27)

>  <Rbt.Parameter_File>
/home/malgorzata/Desktop/rDock_2013.1_src/data/scripts/dock.prm

>  <Rbt.Receptor>
cavity.prm

>  <SCORE>
-56.2758

>  <SCORE.INTER>
-16.3573

>  <SCORE.INTER.CONST>
1

>  <SCORE.INTER.POLAR>
0

>  <SCORE.INTER.REPUL>
0

>  <SCORE.INTER.ROT>
7

>  <SCORE.INTER.VDW>
-28.7573

>  <SCORE.INTER.norm>
-0.65429

>  <SCORE.INTRA>
0.684326

>  <SCORE.INTRA.DIHEDRAL>
-0.498059

>  <SCORE.INTRA.DIHEDRAL.0>
5.55665

>  <SCORE.INTRA.POLAR>
0

>  <SCORE.INTRA.POLAR.0>
0

>  <SCORE.INTRA.REPUL>
0

>  <SCORE.INTRA.REPUL.0>
0

>  <SCORE.INTRA.VDW>
0.933355

>  <SCORE.INTRA.VDW.0>
-2.56587

>  <SCORE.INTRA.norm>
0.027373

>  <SCORE.RESTR>
0

>  <SCORE.RESTR.CAVITY>
0

>  <SCORE.RESTR.norm>
0

>  <SCORE.SYSTEM>
-40.6028

>  <SCORE.SYSTEM.CONST>
0

>  <SCORE.SYSTEM.DIHEDRAL>
3.80965

>  <SCORE.SYSTEM.POLAR>
-1.57345

>  <SCORE.SYSTEM.VDW>
-37.1579

>  <SCORE.SYSTEM.norm>
-1.62411

>  <SCORE.heavy>
25

>  <SCORE.norm>
-2.25103

$$$$
BRL.pdb
  rDOCK(R)          3D
libRbt.so/2013.1/901 2013/11/27
 26 28  0  0  0  0  0  0  0  0999 V2000
   11.2336   -5.3608   11.8366 S   0  0  0  0  0  0
   13.7133   -6.0271   12.5793 O   0  0  0  0  0  0
   10.4969   -5.8112   15.6804 O   0  0  0  0  0  0
    9.6186  -12.0233   11.8716 O   0  0  0  0  0  0
   12.2513   -6.0105   14.2492 N   0  0  0  0  0  0
   12.4781  -11.0195   11.3793 N   0  0  0  0  0  0
   14.2488  -11.4139   13.2528 N   0  0  0  0  0  0
   12.5624   -5.8426   12.9734 C   0  0  0  0  0  0
   10.9593   -5.7876   14.5278 C   0  0  0  0  0  0
   10.1023   -5.4542   13.2985 C   0  0  0  0  0  0
    8.8543   -6.4086   13.0720 C   0  0  0  0  0  0
    9.1105   -7.8495   12.6768 C   0  0  0  0  0  0
   10.1814   -8.6473   13.2627 C   0  0  0  0  0  0
   10.2892  -10.0320   12.9346 C   0  0  0  0  0  0
    9.3587  -10.6498   12.0167 C   0  0  0  0  0  0
    8.3393   -9.8154   11.3736 C   0  0  0  0  0  0
    8.2135   -8.4288   11.7031 C   0  0  0  0  0  0
   10.7666  -12.8633   12.2504 C   0  0  0  0  0  0
   11.8737  -12.4193   11.2713 C   0  0  0  0  0  0
   11.9687  -10.1858   10.1945 C   0  0  0  0  0  0
   13.5600  -10.5235   12.4400 C   0  0  0  0  0  0
   15.1994  -11.0569   14.1572 C   0  0  0  0  0  0
   15.5604   -9.6674   14.3369 C   0  0  0  0  0  0
   14.8960   -8.6762   13.5454 C   0  0  0  0  0  0
   13.8981   -9.0932   12.6009 C   0  0  0  0  0  0
   12.9095   -6.2752   14.9317 H   0  0  0  0  0  0
  1  8  1  0  0  0
  1 10  1  0  0  0
  2  8  2  0  0  0
  3  9  2  0  0  0
  4 15  1  0  0  0
  4 18  1  0  0  0
  5  8  1  0  0  0
  5  9  1  0  0  0
  5 26  1  0  0  0
  6 19  1  0  0  0
  6 20  1  0  0  0
  6 21  1  0  0  0
  7 21  2  0  0  0
  7 22  1  0  0  0
  9 10  1  0  0  0
 10 11  1  0  0  0
 11 12  1  0  0  0
 12 13  2  0  0  0
 12 17  1  0  0  0
 13 14  1  0  0  0
 14 15  2  0  0  0
 15 16  1  0  0  0
 16 17  2  0  0  0
 18 19  1  0  0  0
 21 25  1  0  0  0
 22 23  2  0  0  0
 23 24  1  0  0  0
 24 25  2  0  0  0
M  END
>  <CHROM.0>
111.73460564,-62.18777271,-53.95125796,-177.12709803,148.20793703,179.51401944

>  <CHROM.1>
-13.68605208,-70.47025585,-107.80829856,11.66236921,56.03890258,40.58854907
68.18266277,11.57761636,-8.66520919,12.73012048,-1.82071507,0.24185992,-2.88745581

>  <FORMUL>
      BRL    C18 H19 N3 O3 S1

>  <HET>
 BRL  A   1      25

>  <HETNAM>
     BRL 2,4-THIAZOLIDIINEDIONE, 5-[[4-[2-(METHYL-2-PYRIDINYLAMI
   2 BRL NO)ETHOXY]PHENYL]METHYL]-(9CL)

>  <HETSYN>
     BRL BRL49653; ROSIGLITAZONE

>  <Name>
BRL.pdb

>  <RI>
3.46961e+07

>  <Rbt.Current_Directory>
/home/malgorzata/Desktop/rDOCK_IFD/Wyniki/13_ppar-gamma/IFD

>  <Rbt.Executable>
rbdock ($Id: //depot/dev/client3/rdock/2013.1/src/exe/rbdock.cxx#4 $)

>  <Rbt.Library>
libRbt.so (2013.1, Build901 2013/11/27)

>  <Rbt.Parameter_File>
/home/malgorzata/Desktop/rDock_2013.1_src/data/scripts/dock.prm

>  <Rbt.Receptor>
cavity.prm

>  <SCORE>
-48.5375

>  <SCORE.INTER>
-10.0772

>  <SCORE.INTER.CONST>
1

>  <SCORE.INTER.POLAR>
-0.780276

>  <SCORE.INTER.REPUL>
0.0379901

>  <SCORE.INTER.ROT>
7

>  <SCORE.INTER.VDW>
-20.0142

>  <SCORE.INTER.norm>
-0.403089

>  <SCORE.INTRA>
-1.47379

>  <SCORE.INTRA.DIHEDRAL>
-0.652839

>  <SCORE.INTRA.DIHEDRAL.0>
5.55665

>  <SCORE.INTRA.POLAR>
0

>  <SCORE.INTRA.POLAR.0>
0

>  <SCORE.INTRA.REPUL>
0

>  <SCORE.INTRA.REPUL.0>
0

>  <SCORE.INTRA.VDW>
-1.14737

>  <SCORE.INTRA.VDW.0>
-2.56587

>  <SCORE.INTRA.norm>
-0.0589516

>  <SCORE.RESTR>
0

>  <SCORE.RESTR.CAVITY>
0

>  <SCORE.RESTR.norm>
0

>  <SCORE.SYSTEM>
-36.9865

>  <SCORE.SYSTEM.CONST>
0

>  <SCORE.SYSTEM.DIHEDRAL>
2.58246

>  <SCORE.SYSTEM.POLAR>
-0.742285

>  <SCORE.SYSTEM.REPUL>
0.00235787

>  <SCORE.SYSTEM.VDW>
-35.7657

>  <SCORE.SYSTEM.norm>
-1.47946

>  <SCORE.heavy>
25

>  <SCORE.norm>
-1.9415

$$$$
BRL.pdb
  rDOCK(R)          3D
libRbt.so/2013.1/901 2013/11/27
 26 28  0  0  0  0  0  0  0  0999 V2000
   15.3320   -5.4733   14.5394 S   0  0  0  0  0  0
   15.1711   -6.9718   16.7468 O   0  0  0  0  0  0
   13.1686   -2.9725   16.6808 O   0  0  0  0  0  0
    8.3437   -6.7431   14.3579 O   0  0  0  0  0  0
   14.0846   -5.0418   16.8922 N   0  0  0  0  0  0
    8.3864   -9.3106   11.7091 N   0  0  0  0  0  0
   10.2953  -10.9152   10.9461 N   0  0  0  0  0  0
   14.8379   -5.9060   16.2301 C   0  0  0  0  0  0
   13.7907   -3.9333   16.1984 C   0  0  0  0  0  0
   14.3303   -3.9329   14.7613 C   0  0  0  0  0  0
   13.2335   -3.7241   13.6329 C   0  0  0  0  0  0
   11.9476   -4.5222   13.7205 C   0  0  0  0  0  0
   11.9301   -5.9649   13.9323 C   0  0  0  0  0  0
   10.6845   -6.6338   14.1265 C   0  0  0  0  0  0
    9.4388   -5.9006   14.1008 C   0  0  0  0  0  0
    9.4682   -4.4651   13.8050 C   0  0  0  0  0  0
   10.7111   -3.7810   13.6202 C   0  0  0  0  0  0
    8.1073   -8.1730   14.0998 C   0  0  0  0  0  0
    7.7858   -8.2161   12.5911 C   0  0  0  0  0  0
    7.2974   -9.7965   10.7415 C   0  0  0  0  0  0
    9.8383   -9.9559   11.8399 C   0  0  0  0  0  0
   11.5296  -11.4843   10.9885 C   0  0  0  0  0  0
   12.4779  -11.1112   12.0155 C   0  0  0  0  0  0
   12.0907  -10.1327   12.9866 C   0  0  0  0  0  0
   10.7786   -9.5546   12.9079 C   0  0  0  0  0  0
   13.7688   -5.1992   17.8113 H   0  0  0  0  0  0
  1  8  1  0  0  0
  1 10  1  0  0  0
  2  8  2  0  0  0
  3  9  2  0  0  0
  4 15  1  0  0  0
  4 18  1  0  0  0
  5  8  1  0  0  0
  5  9  1  0  0  0
  5 26  1  0  0  0
  6 19  1  0  0  0
  6 20  1  0  0  0
  6 21  1  0  0  0
  7 21  2  0  0  0
  7 22  1  0  0  0
  9 10  1  0  0  0
 10 11  1  0  0  0
 11 12  1  0  0  0
 12 13  2  0  0  0
 12 17  1  0  0  0
 13 14  1  0  0  0
 14 15  2  0  0  0
 15 16  1  0  0  0
 16 17  2  0  0  0
 18 19  1  0  0  0
 21 25  1  0  0  0
 22 23  2  0  0  0
 23 24  1  0  0  0
 24 25  2  0  0  0
M  END
>  <CHROM.0>
93.49962750,179.00065810,174.73223441,179.36058424,107.69215324,-175.65360014

>  <CHROM.1>
-29.64127944,-77.39559134,138.57565135,-177.61266732,78.44456076,-49.43080067
137.18844286,11.58958812,-6.90221641,13.83964278,-0.90157616,0.24389989,-2.71111968

>  <FORMUL>
      BRL    C18 H19 N3 O3 S1

>  <HET>
 BRL  A   1      25

>  <HETNAM>
     BRL 2,4-THIAZOLIDIINEDIONE, 5-[[4-[2-(METHYL-2-PYRIDINYLAMI
   2 BRL NO)ETHOXY]PHENYL]METHYL]-(9CL)

>  <HETSYN>
     BRL BRL49653; ROSIGLITAZONE

>  <Name>
BRL.pdb

>  <RI>
3.46961e+07

>  <Rbt.Current_Directory>
/home/malgorzata/Desktop/rDOCK_IFD/Wyniki/13_ppar-gamma/IFD

>  <Rbt.Executable>
rbdock ($Id: //depot/dev/client3/rdock/2013.1/src/exe/rbdock.cxx#4 $)

>  <Rbt.Library>
libRbt.so (2013.1, Build901 2013/11/27)

>  <Rbt.Parameter_File>
/home/malgorzata/Desktop/rDock_2013.1_src/data/scripts/dock.prm

>  <Rbt.Receptor>
cavity.prm

>  <SCORE>
-51.4746

>  <SCORE.INTER>
-15.2799

>  <SCORE.INTER.CONST>
1

>  <SCORE.INTER.POLAR>
-0.338915

>  <SCORE.INTER.REPUL>
0

>  <SCORE.INTER.ROT>
7

>  <SCORE.INTER.VDW>
-26.5276

>  <SCORE.INTER.norm>
-0.611197

>  <SCORE.INTRA>
2.58738

>  <SCORE.INTRA.DIHEDRAL>
5.65539

>  <SCORE.INTRA.DIHEDRAL.0>
5.55665

>  <SCORE.INTRA.POLAR>
0

>  <SCORE.INTRA.POLAR.0>
0

>  <SCORE.INTRA.REPUL>
0

>  <SCORE.INTRA.REPUL.0>
0

>  <SCORE.INTRA.VDW>
-0.24031

>  <SCORE.INTRA.VDW.0>
-2.56587

>  <SCORE.INTRA.norm>
0.103495

>  <SCORE.RESTR>
0

>  <SCORE.RESTR.CAVITY>
0

>  <SCORE.RESTR.norm>
0

>  <SCORE.SYSTEM>
-38.7821

>  <SCORE.SYSTEM.CONST>
0

>  <SCORE.SYSTEM.DIHEDRAL>
3.80905

>  <SCORE.SYSTEM.POLAR>
-1.13162

>  <SCORE.SYSTEM.VDW>
-36.8391

>  <SCORE.SYSTEM.norm>
-1.55128

>  <SCORE.heavy>
25

>  <SCORE.norm>
-2.05898

$$$$
BRL.pdb
  rDOCK(R)          3D
libRbt.so/2013.1/901 2013/11/27
 26 28  0  0  0  0  0  0  0  0999 V2000
    8.0045  -10.1349   10.1377 S   0  0  0  0  0  0
    5.7203  -10.4771   11.4828 O   0  0  0  0  0  0
    8.8659  -13.6505   11.6930 O   0  0  0  0  0  0
   10.9490   -6.4657   14.5241 O   0  0  0  0  0  0
    7.1699  -12.1381   11.7405 N   0  0  0  0  0  0
   13.6304   -4.8493   14.7936 N   0  0  0  0  0  0
   15.8121   -5.9581   15.6945 N   0  0  0  0  0  0
    6.8151  -10.9735   11.2202 C   0  0  0  0  0  0
    8.3936  -12.5462   11.3764 C   0  0  0  0  0  0
    9.1499  -11.5451   10.4917 C   0  0  0  0  0  0
   10.5621  -11.0868   11.0534 C   0  0  0  0  0  0
   10.6317   -9.8198   11.8829 C   0  0  0  0  0  0
    9.5463   -9.3916   12.7575 C   0  0  0  0  0  0
    9.7276   -8.2550   13.6014 C   0  0  0  0  0  0
   10.9690   -7.5141   13.5884 C   0  0  0  0  0  0
   12.0188   -7.9082   12.6442 C   0  0  0  0  0  0
   11.8537   -9.0527   11.8017 C   0  0  0  0  0  0
   11.0052   -5.0019   14.3785 C   0  0  0  0  0  0
   12.4326   -4.7492   13.8493 C   0  0  0  0  0  0
   13.6846   -3.5660   15.6353 C   0  0  0  0  0  0
   14.7304   -6.0029   14.8251 C   0  0  0  0  0  0
   16.7683   -6.9204   15.7873 C   0  0  0  0  0  0
   16.7151   -8.0956   14.9450 C   0  0  0  0  0  0
   15.6372   -8.2243   14.0112 C   0  0  0  0  0  0
   14.6468   -7.1868   13.9435 C   0  0  0  0  0  0
    6.5875  -12.6575   12.3406 H   0  0  0  0  0  0
  1  8  1  0  0  0
  1 10  1  0  0  0
  2  8  2  0  0  0
  3  9  2  0  0  0
  4 15  1  0  0  0
  4 18  1  0  0  0
  5  8  1  0  0  0
  5  9  1  0  0  0
  5 26  1  0  0  0
  6 19  1  0  0  0
  6 20  1  0  0  0
  6 21  1  0  0  0
  7 21  2  0  0  0
  7 22  1  0  0  0
  9 10  1  0  0  0
 10 11  1  0  0  0
 11 12  1  0  0  0
 12 13  2  0  0  0
 12 17  1  0  0  0
 13 14  1  0  0  0
 14 15  2  0  0  0
 15 16  1  0  0  0
 16 17  2  0  0  0
 18 19  1  0  0  0
 21 25  1  0  0  0
 22 23  2  0  0  0
 23 24  1  0  0  0
 24 25  2  0  0  0
M  END
>  <CHROM.0>
-76.77456984,-179.68153922,-176.92195896,178.14834599,-8.31516547,-175.45123718

>  <CHROM.1>
-115.65357168,-67.37208886,-77.71402815,177.15785460,30.78074064,32.90875916
-75.33292254,11.18370097,-8.54505789,12.96948424,2.39888774,0.25247803,-2.79322992

>  <FORMUL>
      BRL    C18 H19 N3 O3 S1

>  <HET>
 BRL  A   1      25

>  <HETNAM>
     BRL 2,4-THIAZOLIDIINEDIONE, 5-[[4-[2-(METHYL-2-PYRIDINYLAMI
   2 BRL NO)ETHOXY]PHENYL]METHYL]-(9CL)

>  <HETSYN>
     BRL BRL49653; ROSIGLITAZONE

>  <Name>
BRL.pdb

>  <RI>
3.46961e+07

>  <Rbt.Current_Directory>
/home/malgorzata/Desktop/rDOCK_IFD/Wyniki/13_ppar-gamma/IFD

>  <Rbt.Executable>
rbdock ($Id: //depot/dev/client3/rdock/2013.1/src/exe/rbdock.cxx#4 $)

>  <Rbt.Library>
libRbt.so (2013.1, Build901 2013/11/27)

>  <Rbt.Parameter_File>
/home/malgorzata/Desktop/rDock_2013.1_src/data/scripts/dock.prm

>  <Rbt.Receptor>
cavity.prm

>  <SCORE>
-51.3906

>  <SCORE.INTER>
-15.2296

>  <SCORE.INTER.CONST>
1

>  <SCORE.INTER.POLAR>
-0.882618

>  <SCORE.INTER.REPUL>
0

>  <SCORE.INTER.ROT>
7

>  <SCORE.INTER.VDW>
-24.6287

>  <SCORE.INTER.norm>
-0.609182

>  <SCORE.INTRA>
2.53318

>  <SCORE.INTRA.DIHEDRAL>
4.86682

>  <SCORE.INTRA.DIHEDRAL.0>
5.55665

>  <SCORE.INTRA.POLAR>
0

>  <SCORE.INTRA.POLAR.0>
0

>  <SCORE.INTRA.REPUL>
0

>  <SCORE.INTRA.REPUL.0>
0

>  <SCORE.INTRA.VDW>
0.0997754

>  <SCORE.INTRA.VDW.0>
-2.56587

>  <SCORE.INTRA.norm>
0.101327

>  <SCORE.RESTR>
0

>  <SCORE.RESTR.CAVITY>
0

>  <SCORE.RESTR.norm>
0

>  <SCORE.SYSTEM>
-38.6942

>  <SCORE.SYSTEM.CONST>
0

>  <SCORE.SYSTEM.DIHEDRAL>
3.91411

>  <SCORE.SYSTEM.POLAR>
-1.23537

>  <SCORE.SYSTEM.VDW>
-36.451

>  <SCORE.SYSTEM.norm>
-1.54777

>  <SCORE.heavy>
25

>  <SCORE.norm>
-2.05562

$$$$
BRL.pdb
  rDOCK(R)          3D
libRbt.so/2013.1/901 2013/11/27
 26 28  0  0  0  0  0  0  0  0999 V2000
   11.1515  -10.6253   10.0797 S   0  0  0  0  0  0
    8.7101   -9.5737   10.3584 O   0  0  0  0  0  0
    9.2816  -13.9578   11.0375 O   0  0  0  0  0  0
   13.8869   -8.4381   15.0201 O   0  0  0  0  0  0
    8.8005  -11.7523   10.7729 N   0  0  0  0  0  0
   14.5978   -4.7726   15.4662 N   0  0  0  0  0  0
   16.4824   -2.9803   15.2740 N   0  0  0  0  0  0
    9.3710  -10.6094   10.4249 C   0  0  0  0  0  0
    9.6462  -12.7913   10.8158 C   0  0  0  0  0  0
   11.1069  -12.4221   10.5213 C   0  0  0  0  0  0
   12.1414  -12.8196   11.6578 C   0  0  0  0  0  0
   12.6860  -11.7239   12.5527 C   0  0  0  0  0  0
   13.3506  -10.5369   12.0274 C   0  0  0  0  0  0
   13.7297   -9.4887   12.9186 C   0  0  0  0  0  0
   13.4764   -9.5962   14.3379 C   0  0  0  0  0  0
   12.8825  -10.8307   14.8595 C   0  0  0  0  0  0
   12.4873  -11.8837   13.9751 C   0  0  0  0  0  0
   14.7244   -7.2945   14.6229 C   0  0  0  0  0  0
   13.8963   -6.0716   15.0703 C   0  0  0  0  0  0
   13.6799   -4.0082   16.4314 C   0  0  0  0  0  0
   15.9740   -4.2132   14.8875 C   0  0  0  0  0  0
   17.6601   -2.4595   14.8371 C   0  0  0  0  0  0
   18.4852   -3.1889   13.8989 C   0  0  0  0  0  0
   18.0367   -4.4685   13.4386 C   0  0  0  0  0  0
   16.7875   -4.9845   13.9236 C   0  0  0  0  0  0
    7.8416  -11.8319   10.9813 H   0  0  0  0  0  0
  1  8  1  0  0  0
  1 10  1  0  0  0
  2  8  2  0  0  0
  3  9  2  0  0  0
  4 15  1  0  0  0
  4 18  1  0  0  0
  5  8  1  0  0  0
  5  9  1  0  0  0
  5 26  1  0  0  0
  6 19  1  0  0  0
  6 20  1  0  0  0
  6 21  1  0  0  0
  7 21  2  0  0  0
  7 22  1  0  0  0
  9 10  1  0  0  0
 10 11  1  0  0  0
 11 12  1  0  0  0
 12 13  2  0  0  0
 12 17  1  0  0  0
 13 14  1  0  0  0
 14 15  2  0  0  0
 15 16  1  0  0  0
 16 17  2  0  0  0
 18 19  1  0  0  0
 21 25  1  0  0  0
 22 23  2  0  0  0
 23 24  1  0  0  0
 24 25  2  0  0  0
M  END
>  <CHROM.0>
113.68723882,61.79234276,-55.45599666,-174.46950653,-127.95270396,174.15033513

>  <CHROM.1>
-13.37194561,132.02667867,-154.38375868,176.56050614,19.83363616,-55.32456883
150.89052716,13.14226307,-8.58172688,13.00905449,2.47365414,0.75748060,2.87913259

>  <FORMUL>
      BRL    C18 H19 N3 O3 S1

>  <HET>
 BRL  A   1      25

>  <HETNAM>
     BRL 2,4-THIAZOLIDIINEDIONE, 5-[[4-[2-(METHYL-2-PYRIDINYLAMI
   2 BRL NO)ETHOXY]PHENYL]METHYL]-(9CL)

>  <HETSYN>
     BRL BRL49653; ROSIGLITAZONE

>  <Name>
BRL.pdb

>  <RI>
3.46961e+07

>  <Rbt.Current_Directory>
/home/malgorzata/Desktop/rDOCK_IFD/Wyniki/13_ppar-gamma/IFD

>  <Rbt.Executable>
rbdock ($Id: //depot/dev/client3/rdock/2013.1/src/exe/rbdock.cxx#4 $)

>  <Rbt.Library>
libRbt.so (2013.1, Build901 2013/11/27)

>  <Rbt.Parameter_File>
/home/malgorzata/Desktop/rDock_2013.1_src/data/scripts/dock.prm

>  <Rbt.Receptor>
cavity.prm

>  <SCORE>
-18.5873

>  <SCORE.INTER>
3.24365

>  <SCORE.INTER.CONST>
1

>  <SCORE.INTER.POLAR>
-0.52915

>  <SCORE.INTER.REPUL>
0

>  <SCORE.INTER.ROT>
7

>  <SCORE.INTER.VDW>
-7.35724

>  <SCORE.INTER.norm>
0.129746

>  <SCORE.INTRA>
7.72205

>  <SCORE.INTRA.DIHEDRAL>
11.2942

>  <SCORE.INTRA.DIHEDRAL.0>
5.55665

>  <SCORE.INTRA.POLAR>
0

>  <SCORE.INTRA.POLAR.0>
0

>  <SCORE.INTRA.REPUL>
0

>  <SCORE.INTRA.REPUL.0>
0

>  <SCORE.INTRA.VDW>
2.07497

>  <SCORE.INTRA.VDW.0>
-2.56587

>  <SCORE.INTRA.norm>
0.308882

>  <SCORE.RESTR>
0

>  <SCORE.RESTR.CAVITY>
0

>  <SCORE.RESTR.norm>
0

>  <SCORE.SYSTEM>
-29.553

>  <SCORE.SYSTEM.CONST>
0

>  <SCORE.SYSTEM.DIHEDRAL>
4.0598

>  <SCORE.SYSTEM.POLAR>
-0.943369

>  <SCORE.SYSTEM.REPUL>
0.0137276

>  <SCORE.SYSTEM.VDW>
-28.4441

>  <SCORE.SYSTEM.norm>
-1.18212

>  <SCORE.heavy>
25

>  <SCORE.norm>
-0.743493

$$$$
