TOL.pdb
  rDOCK(R)          3D
libRbt.so/2013.1/901 2013/11/27
 25 26  0  0  0  0  0  0  0  0999 V2000
   23.7276   28.6075   73.2617 C   0  0  0  0  0  0
   24.1566   29.8139   72.8133 F   0  0  0  0  0  0
   24.8300   27.8255   73.4078 F   0  0  0  0  0  0
   23.1915   28.7841   74.4987 F   0  0  0  0  0  0
   22.6938   27.9794   72.3021 C   0  0  0  0  0  0
   22.8950   26.7533   71.6163 C   0  0  0  0  0  0
   24.0217   26.0857   71.7873 O   0  0  0  0  0  0
   23.8287   24.8249   72.4070 C   0  0  0  0  0  0
   21.8854   26.2674   70.7567 C   0  0  0  0  0  0
   20.6942   26.9793   70.5761 C   0  0  0  0  0  0
   20.4918   28.1980   71.2533 C   0  0  0  0  0  0
   19.2839   28.9086   71.0612 C   0  0  0  0  0  0
   19.0822   30.1229   71.7375 C   0  0  0  0  0  0
   20.0648   30.6280   72.5921 C   0  0  0  0  0  0
   21.2588   29.9204   72.7797 C   0  0  0  0  0  0
   21.4853   28.7012   72.1144 C   0  0  0  0  0  0
   18.1690   28.4370   70.1575 C   0  0  0  0  0  0
   16.9601   27.3961   70.7830 S   0  0  0  0  0  0
   18.1312   28.8478   68.8890 N   0  0  0  0  0  0
   19.1107   29.8175   68.4114 C   0  0  0  0  0  0
   17.1162   28.3653   67.9580 C   0  0  0  0  0  0
   16.1354   29.4818   67.5608 C   0  0  0  0  0  0
   15.9638   29.8084   66.4158 O   0  0  0  0  0  0
   15.4817   30.0587   68.5753 O   0  0  0  0  0  0
   15.7700   29.9223   69.4563 H   0  0  0  0  0  0
  1  2  1  0  0  0
  1  3  1  0  0  0
  1  4  1  0  0  0
  1  5  1  0  0  0
  5  6  2  0  0  0
  5 16  1  0  0  0
  6  7  1  0  0  0
  6  9  1  0  0  0
  7  8  1  0  0  0
  9 10  2  0  0  0
 10 11  1  0  0  0
 11 12  2  0  0  0
 11 16  1  0  0  0
 12 13  1  0  0  0
 12 17  1  0  0  0
 13 14  2  0  0  0
 14 15  1  0  0  0
 15 16  2  0  0  0
 17 18  2  0  0  0
 17 19  1  0  0  0
 19 20  1  0  0  0
 19 21  1  0  0  0
 21 22  1  0  0  0
 22 23  2  0  0  0
 22 24  1  0  0  0
 24 25  1  0  0  0
M  END
>  <CHROM.0>
-0.90377692,0.63295654,144.85565310,-171.60659384,-53.99160094,-177.43654169
60.37066911,159.41687194,-61.18859492,-61.54190337,-38.36868631,-61.41326028
-60.50081437,174.46955098

>  <CHROM.1>
117.67642513,115.50783135,88.00734552,111.80317231,122.29852741,14.03949244
20.36988308,28.40379213,71.02617001,0.07517843,-0.58092180,0.44400776

>  <FORMUL>
      TOL    C16 H14 F3 N1 O3 S1

>  <HET>
 TOL  A 320      24

>  <HETNAM>
     TOL TOLRESTAT

>  <Name>
TOL.pdb

>  <RI>
0

>  <Rbt.Current_Directory>
/home/malgorzata/Desktop/rDOCK_IFD/Wyniki/1_aldose_reductase

>  <Rbt.Executable>
rbdock ($Id: //depot/dev/client3/rdock/2013.1/src/exe/rbdock.cxx#4 $)

>  <Rbt.Library>
libRbt.so (2013.1, Build901 2013/11/27)

>  <Rbt.Parameter_File>
/home/malgorzata/Desktop/rDock_2013.1_src/data/scripts/soft_docking.prm

>  <Rbt.Receptor>
cavity.prm

>  <SCORE>
-45.9582

>  <SCORE.INTER>
-34.6986

>  <SCORE.INTER.CONST>
1

>  <SCORE.INTER.POLAR>
-1.78208

>  <SCORE.INTER.REPUL>
0.0748578

>  <SCORE.INTER.ROT>
5

>  <SCORE.INTER.VDW>
-39.4138

>  <SCORE.INTER.norm>
-1.44577

>  <SCORE.INTRA>
-5.57947

>  <SCORE.INTRA.DIHEDRAL>
5.52514

>  <SCORE.INTRA.DIHEDRAL.0>
16.9783

>  <SCORE.INTRA.POLAR>
0

>  <SCORE.INTRA.POLAR.0>
0

>  <SCORE.INTRA.REPUL>
0

>  <SCORE.INTRA.REPUL.0>
0

>  <SCORE.INTRA.VDW>
-6.6845

>  <SCORE.INTRA.VDW.0>
4.87734

>  <SCORE.INTRA.norm>
-0.232478

>  <SCORE.RESTR>
0.117564

>  <SCORE.RESTR.CAVITY>
0.117564

>  <SCORE.RESTR.norm>
0.00489849

>  <SCORE.SYSTEM>
-5.79773

>  <SCORE.SYSTEM.CONST>
0

>  <SCORE.SYSTEM.DIHEDRAL>
11.3965

>  <SCORE.SYSTEM.POLAR>
-3.30938

>  <SCORE.SYSTEM.REPUL>
1.16943

>  <SCORE.SYSTEM.VDW>
-6.09123

>  <SCORE.SYSTEM.norm>
-0.241572

>  <SCORE.heavy>
24

>  <SCORE.norm>
-1.91493

$$$$
TOL.pdb
  rDOCK(R)          3D
libRbt.so/2013.1/901 2013/11/27
 25 26  0  0  0  0  0  0  0  0999 V2000
   16.4520   30.1644   62.3721 C   0  0  0  0  0  0
   15.3923   30.8508   61.8753 F   0  0  0  0  0  0
   16.3793   28.9049   61.8656 F   0  0  0  0  0  0
   17.5874   30.7308   61.8835 F   0  0  0  0  0  0
   16.4589   30.1693   63.9161 C   0  0  0  0  0  0
   15.6512   31.0271   64.7072 C   0  0  0  0  0  0
   14.8349   31.8827   64.1191 O   0  0  0  0  0  0
   13.5467   31.3412   63.8776 C   0  0  0  0  0  0
   15.7363   30.9541   66.1149 C   0  0  0  0  0  0
   16.6046   30.0480   66.7342 C   0  0  0  0  0  0
   17.4098   29.1965   65.9522 C   0  0  0  0  0  0
   18.2844   28.2860   66.5904 C   0  0  0  0  0  0
   19.0859   27.4366   65.8102 C   0  0  0  0  0  0
   19.0235   27.4891   64.4159 C   0  0  0  0  0  0
   18.1556   28.3917   63.7887 C   0  0  0  0  0  0
   17.3414   29.2531   64.5473 C   0  0  0  0  0  0
   18.4157   28.1616   68.0901 C   0  0  0  0  0  0
   17.3054   27.1845   68.9554 S   0  0  0  0  0  0
   19.4021   28.8016   68.7200 N   0  0  0  0  0  0
   20.3965   29.5394   67.9489 C   0  0  0  0  0  0
   19.5293   28.7704   70.1736 C   0  0  0  0  0  0
   20.8380   28.0918   70.6132 C   0  0  0  0  0  0
   21.5979   28.6059   71.3912 O   0  0  0  0  0  0
   21.0685   26.8884   70.0764 O   0  0  0  0  0  0
   20.4258   26.4920   69.5217 H   0  0  0  0  0  0
  1  2  1  0  0  0
  1  3  1  0  0  0
  1  4  1  0  0  0
  1  5  1  0  0  0
  5  6  2  0  0  0
  5 16  1  0  0  0
  6  7  1  0  0  0
  6  9  1  0  0  0
  7  8  1  0  0  0
  9 10  2  0  0  0
 10 11  1  0  0  0
 11 12  2  0  0  0
 11 16  1  0  0  0
 12 13  1  0  0  0
 12 17  1  0  0  0
 13 14  2  0  0  0
 14 15  1  0  0  0
 15 16  2  0  0  0
 17 18  2  0  0  0
 17 19  1  0  0  0
 19 20  1  0  0  0
 19 21  1  0  0  0
 21 22  1  0  0  0
 22 23  2  0  0  0
 22 24  1  0  0  0
 24 25  1  0  0  0
M  END
>  <CHROM.0>
-9.33094365,174.62782141,-94.68398487,80.78670178,-27.93252274,47.82480350
-0.77119918,-152.02031870,-61.18859492,-61.54190337,-63.63442318,-61.41326028
-60.50081437,171.64016617

>  <CHROM.1>
-13.46295464,89.87209780,83.77085300,116.99088779,128.88529665,-4.02426646
17.72639404,29.19088723,66.06501571,-2.20788040,-0.58220349,1.53637194

>  <FORMUL>
      TOL    C16 H14 F3 N1 O3 S1

>  <HET>
 TOL  A 320      24

>  <HETNAM>
     TOL TOLRESTAT

>  <Name>
TOL.pdb

>  <RI>
0

>  <Rbt.Current_Directory>
/home/malgorzata/Desktop/rDOCK_IFD/Wyniki/1_aldose_reductase

>  <Rbt.Executable>
rbdock ($Id: //depot/dev/client3/rdock/2013.1/src/exe/rbdock.cxx#4 $)

>  <Rbt.Library>
libRbt.so (2013.1, Build901 2013/11/27)

>  <Rbt.Parameter_File>
/home/malgorzata/Desktop/rDock_2013.1_src/data/scripts/soft_docking.prm

>  <Rbt.Receptor>
cavity.prm

>  <SCORE>
-34.8713

>  <SCORE.INTER>
-24.2475

>  <SCORE.INTER.CONST>
1

>  <SCORE.INTER.POLAR>
-1.00662

>  <SCORE.INTER.REPUL>
0.425606

>  <SCORE.INTER.ROT>
5

>  <SCORE.INTER.VDW>
-33.3531

>  <SCORE.INTER.norm>
-1.01031

>  <SCORE.INTRA>
-5.09298

>  <SCORE.INTRA.DIHEDRAL>
5.04282

>  <SCORE.INTRA.DIHEDRAL.0>
16.9783

>  <SCORE.INTRA.POLAR>
0

>  <SCORE.INTRA.POLAR.0>
0

>  <SCORE.INTRA.REPUL>
0

>  <SCORE.INTRA.REPUL.0>
0

>  <SCORE.INTRA.VDW>
-6.10155

>  <SCORE.INTRA.VDW.0>
4.87734

>  <SCORE.INTRA.norm>
-0.212208

>  <SCORE.RESTR>
0

>  <SCORE.RESTR.CAVITY>
0

>  <SCORE.RESTR.norm>
0

>  <SCORE.SYSTEM>
-5.5308

>  <SCORE.SYSTEM.CONST>
0

>  <SCORE.SYSTEM.DIHEDRAL>
11.4426

>  <SCORE.SYSTEM.POLAR>
-2.92844

>  <SCORE.SYSTEM.REPUL>
1.16943

>  <SCORE.SYSTEM.VDW>
-7.14257

>  <SCORE.SYSTEM.norm>
-0.23045

>  <SCORE.heavy>
24

>  <SCORE.norm>
-1.45297

$$$$
TOL.pdb
  rDOCK(R)          3D
libRbt.so/2013.1/901 2013/11/27
 25 26  0  0  0  0  0  0  0  0999 V2000
   15.8857   30.5158   65.3344 C   0  0  0  0  0  0
   16.0720   31.8211   65.6539 F   0  0  0  0  0  0
   14.6292   30.1864   65.7356 F   0  0  0  0  0  0
   15.9186   30.4047   63.9796 F   0  0  0  0  0  0
   16.9574   29.6133   65.9834 C   0  0  0  0  0  0
   17.9280   28.8848   65.2477 C   0  0  0  0  0  0
   17.9426   28.9619   63.9293 O   0  0  0  0  0  0
   18.8698   29.9175   63.4415 C   0  0  0  0  0  0
   18.8631   28.0840   65.9393 C   0  0  0  0  0  0
   18.8425   28.0029   67.3363 C   0  0  0  0  0  0
   17.8789   28.7227   68.0700 C   0  0  0  0  0  0
   17.8678   28.6311   69.4815 C   0  0  0  0  0  0
   16.9077   29.3499   70.2124 C   0  0  0  0  0  0
   15.9695   30.1480   69.5539 C   0  0  0  0  0  0
   15.9850   30.2360   68.1563 C   0  0  0  0  0  0
   16.9368   29.5265   67.4007 C   0  0  0  0  0  0
   18.8437   27.7939   70.2744 C   0  0  0  0  0  0
   18.3563   26.2590   70.8598 S   0  0  0  0  0  0
   20.0763   28.2530   70.4966 N   0  0  0  0  0  0
   20.4996   29.5136   69.8970 C   0  0  0  0  0  0
   21.0322   27.5145   71.3156 C   0  0  0  0  0  0
   22.1548   26.9008   70.4615 C   0  0  0  0  0  0
   22.0298   26.7057   69.2811 O   0  0  0  0  0  0
   23.2810   26.6063   71.1204 O   0  0  0  0  0  0
   23.2986   26.6403   72.0566 H   0  0  0  0  0  0
  1  2  1  0  0  0
  1  3  1  0  0  0
  1  4  1  0  0  0
  1  5  1  0  0  0
  5  6  2  0  0  0
  5 16  1  0  0  0
  6  7  1  0  0  0
  6  9  1  0  0  0
  7  8  1  0  0  0
  9 10  2  0  0  0
 10 11  1  0  0  0
 11 12  2  0  0  0
 11 16  1  0  0  0
 12 13  1  0  0  0
 12 17  1  0  0  0
 13 14  2  0  0  0
 14 15  1  0  0  0
 15 16  2  0  0  0
 17 18  2  0  0  0
 17 19  1  0  0  0
 19 20  1  0  0  0
 19 21  1  0  0  0
 21 22  1  0  0  0
 22 23  2  0  0  0
 22 24  1  0  0  0
 24 25  1  0  0  0
M  END
>  <CHROM.0>
-81.30331418,15.12732256,98.36910811,171.97392642,115.91767053,60.69436786
166.78447959,-141.12441286,-61.18859492,-61.54190337,-68.94147202,-61.41326028
-60.50081437,-96.07031170

>  <CHROM.1>
-114.24033842,96.20892100,-100.19570587,108.51863369,-21.15897261,10.24555015
18.30121655,28.77865014,67.92494550,2.24937848,0.39811321,-1.36201287

>  <FORMUL>
      TOL    C16 H14 F3 N1 O3 S1

>  <HET>
 TOL  A 320      24

>  <HETNAM>
     TOL TOLRESTAT

>  <Name>
TOL.pdb

>  <RI>
0

>  <Rbt.Current_Directory>
/home/malgorzata/Desktop/rDOCK_IFD/Wyniki/1_aldose_reductase

>  <Rbt.Executable>
rbdock ($Id: //depot/dev/client3/rdock/2013.1/src/exe/rbdock.cxx#4 $)

>  <Rbt.Library>
libRbt.so (2013.1, Build901 2013/11/27)

>  <Rbt.Parameter_File>
/home/malgorzata/Desktop/rDock_2013.1_src/data/scripts/soft_docking.prm

>  <Rbt.Receptor>
cavity.prm

>  <SCORE>
-38.5879

>  <SCORE.INTER>
-26.9075

>  <SCORE.INTER.CONST>
1

>  <SCORE.INTER.POLAR>
-0.957488

>  <SCORE.INTER.REPUL>
0

>  <SCORE.INTER.ROT>
5

>  <SCORE.INTER.VDW>
-34.0521

>  <SCORE.INTER.norm>
-1.12115

>  <SCORE.INTRA>
-5.81086

>  <SCORE.INTRA.DIHEDRAL>
5.3413

>  <SCORE.INTRA.DIHEDRAL.0>
16.9783

>  <SCORE.INTRA.POLAR>
0

>  <SCORE.INTRA.POLAR.0>
0

>  <SCORE.INTRA.REPUL>
0

>  <SCORE.INTRA.REPUL.0>
0

>  <SCORE.INTRA.VDW>
-6.87912

>  <SCORE.INTRA.VDW.0>
4.87734

>  <SCORE.INTRA.norm>
-0.242119

>  <SCORE.RESTR>
0

>  <SCORE.RESTR.CAVITY>
0

>  <SCORE.RESTR.norm>
0

>  <SCORE.SYSTEM>
-5.86956

>  <SCORE.SYSTEM.CONST>
0

>  <SCORE.SYSTEM.DIHEDRAL>
19.9417

>  <SCORE.SYSTEM.POLAR>
-4.05458

>  <SCORE.SYSTEM.REPUL>
1.16943

>  <SCORE.SYSTEM.VDW>
-7.90198

>  <SCORE.SYSTEM.norm>
-0.244565

>  <SCORE.heavy>
24

>  <SCORE.norm>
-1.60783

$$$$
TOL.pdb
  rDOCK(R)          3D
libRbt.so/2013.1/901 2013/11/27
 25 26  0  0  0  0  0  0  0  0999 V2000
   23.6866   28.8420   73.4488 C   0  0  0  0  0  0
   24.0050   30.1577   73.3569 F   0  0  0  0  0  0
   24.8568   28.1596   73.5636 F   0  0  0  0  0  0
   22.9956   28.6554   74.6048 F   0  0  0  0  0  0
   22.8575   28.3719   72.2340 C   0  0  0  0  0  0
   23.0932   27.1573   71.5388 C   0  0  0  0  0  0
   24.0712   26.3599   71.9286 O   0  0  0  0  0  0
   23.6195   25.0631   72.2826 C   0  0  0  0  0  0
   22.2777   26.8218   70.4357 C   0  0  0  0  0  0
   21.2442   27.6708   70.0242 C   0  0  0  0  0  0
   21.0087   28.8786   70.7103 C   0  0  0  0  0  0
   19.9618   29.7287   70.2834 C   0  0  0  0  0  0
   19.7268   30.9320   70.9686 C   0  0  0  0  0  0
   20.5194   31.2898   72.0616 C   0  0  0  0  0  0
   21.5543   30.4444   72.4809 C   0  0  0  0  0  0
   21.8101   29.2330   71.8121 C   0  0  0  0  0  0
   19.0568   29.4210   69.1137 C   0  0  0  0  0  0
   19.6709   29.5405   67.5185 S   0  0  0  0  0  0
   17.7963   29.0462   69.3372 N   0  0  0  0  0  0
   17.3302   28.8488   70.7053 C   0  0  0  0  0  0
   16.8631   28.8065   68.2411 C   0  0  0  0  0  0
   15.7963   29.9113   68.1534 C   0  0  0  0  0  0
   16.0042   30.9626   67.6071 O   0  0  0  0  0  0
   14.6202   29.6193   68.7199 O   0  0  0  0  0  0
   14.3021   28.7380   68.7113 H   0  0  0  0  0  0
  1  2  1  0  0  0
  1  3  1  0  0  0
  1  4  1  0  0  0
  1  5  1  0  0  0
  5  6  2  0  0  0
  5 16  1  0  0  0
  6  7  1  0  0  0
  6  9  1  0  0  0
  7  8  1  0  0  0
  9 10  2  0  0  0
 10 11  1  0  0  0
 11 12  2  0  0  0
 11 16  1  0  0  0
 12 13  1  0  0  0
 12 17  1  0  0  0
 13 14  2  0  0  0
 14 15  1  0  0  0
 15 16  2  0  0  0
 17 18  2  0  0  0
 17 19  1  0  0  0
 19 20  1  0  0  0
 19 21  1  0  0  0
 21 22  1  0  0  0
 22 23  2  0  0  0
 22 24  1  0  0  0
 24 25  1  0  0  0
M  END
>  <CHROM.0>
148.08595333,-22.55367368,93.37112370,170.71155828,149.21329392,-61.92636211
-28.73062688,-164.68456991,-61.18859492,-61.54190337,-78.87166209,-61.41326028
-60.50081437,-145.05792506

>  <CHROM.1>
135.71252081,121.19318799,-72.71500649,-108.47536750,81.99688248,-33.30900430
20.61602751,28.92922076,70.80176290,0.16343550,-0.59451120,0.65246647

>  <FORMUL>
      TOL    C16 H14 F3 N1 O3 S1

>  <HET>
 TOL  A 320      24

>  <HETNAM>
     TOL TOLRESTAT

>  <Name>
TOL.pdb

>  <RI>
0

>  <Rbt.Current_Directory>
/home/malgorzata/Desktop/rDOCK_IFD/Wyniki/1_aldose_reductase

>  <Rbt.Executable>
rbdock ($Id: //depot/dev/client3/rdock/2013.1/src/exe/rbdock.cxx#4 $)

>  <Rbt.Library>
libRbt.so (2013.1, Build901 2013/11/27)

>  <Rbt.Parameter_File>
/home/malgorzata/Desktop/rDock_2013.1_src/data/scripts/soft_docking.prm

>  <Rbt.Receptor>
cavity.prm

>  <SCORE>
-47.0548

>  <SCORE.INTER>
-38.1668

>  <SCORE.INTER.CONST>
1

>  <SCORE.INTER.POLAR>
-3.40872

>  <SCORE.INTER.REPUL>
0

>  <SCORE.INTER.ROT>
5

>  <SCORE.INTER.VDW>
-36.9771

>  <SCORE.INTER.norm>
-1.59028

>  <SCORE.INTRA>
-3.48685

>  <SCORE.INTRA.DIHEDRAL>
9.73912

>  <SCORE.INTRA.DIHEDRAL.0>
16.9783

>  <SCORE.INTRA.POLAR>
0

>  <SCORE.INTRA.POLAR.0>
0

>  <SCORE.INTRA.REPUL>
0

>  <SCORE.INTRA.REPUL.0>
0

>  <SCORE.INTRA.VDW>
-5.43468

>  <SCORE.INTRA.VDW.0>
4.87734

>  <SCORE.INTRA.norm>
-0.145285

>  <SCORE.RESTR>
0.376598

>  <SCORE.RESTR.CAVITY>
0.376598

>  <SCORE.RESTR.norm>
0.0156916

>  <SCORE.SYSTEM>
-5.77772

>  <SCORE.SYSTEM.CONST>
0

>  <SCORE.SYSTEM.DIHEDRAL>
13.3982

>  <SCORE.SYSTEM.POLAR>
-3.24243

>  <SCORE.SYSTEM.REPUL>
1.16943

>  <SCORE.SYSTEM.VDW>
-7.29971

>  <SCORE.SYSTEM.norm>
-0.240738

>  <SCORE.heavy>
24

>  <SCORE.norm>
-1.96062

$$$$
TOL.pdb
  rDOCK(R)          3D
libRbt.so/2013.1/901 2013/11/27
 25 26  0  0  0  0  0  0  0  0999 V2000
   22.8183   29.0076   72.8178 C   0  0  0  0  0  0
   23.5990   28.0791   73.4253 F   0  0  0  0  0  0
   21.9966   29.5186   73.7726 F   0  0  0  0  0  0
   23.6207   30.0195   72.3923 F   0  0  0  0  0  0
   22.0292   28.4019   71.6368 C   0  0  0  0  0  0
   22.3316   27.1481   71.0447 C   0  0  0  0  0  0
   23.3408   26.4327   71.5076 O   0  0  0  0  0  0
   22.9792   25.6133   72.6070 C   0  0  0  0  0  0
   21.5483   26.6860   69.9643 C   0  0  0  0  0  0
   20.4816   27.4484   69.4751 C   0  0  0  0  0  0
   20.1798   28.6947   70.0587 C   0  0  0  0  0  0
   19.0999   29.4562   69.5540 C   0  0  0  0  0  0
   18.7989   30.6980   70.1370 C   0  0  0  0  0  0
   19.5585   31.1803   71.2053 C   0  0  0  0  0  0
   20.6262   30.4223   71.7021 C   0  0  0  0  0  0
   20.9482   29.1748   71.1361 C   0  0  0  0  0  0
   18.2268   29.0121   68.4040 C   0  0  0  0  0  0
   18.9489   28.6152   66.9016 S   0  0  0  0  0  0
   16.9072   28.9205   68.5764 N   0  0  0  0  0  0
   16.3297   29.1606   69.8942 C   0  0  0  0  0  0
   16.0146   28.5647   67.4780 C   0  0  0  0  0  0
   15.9568   29.6734   66.4132 C   0  0  0  0  0  0
   16.1778   30.8266   66.6744 O   0  0  0  0  0  0
   15.6513   29.2654   65.1764 O   0  0  0  0  0  0
   15.5935   29.8881   64.4786 H   0  0  0  0  0  0
  1  2  1  0  0  0
  1  3  1  0  0  0
  1  4  1  0  0  0
  1  5  1  0  0  0
  5  6  2  0  0  0
  5 16  1  0  0  0
  6  7  1  0  0  0
  6  9  1  0  0  0
  7  8  1  0  0  0
  9 10  2  0  0  0
 10 11  1  0  0  0
 11 12  2  0  0  0
 11 16  1  0  0  0
 12 13  1  0  0  0
 12 17  1  0  0  0
 13 14  2  0  0  0
 14 15  1  0  0  0
 15 16  2  0  0  0
 17 18  2  0  0  0
 17 19  1  0  0  0
 19 20  1  0  0  0
 19 21  1  0  0  0
 21 22  1  0  0  0
 22 23  2  0  0  0
 22 24  1  0  0  0
 24 25  1  0  0  0
M  END
>  <CHROM.0>
33.35724856,44.05174870,14.89662793,-177.98383121,60.45566508,-167.10518399
144.77360646,45.34435634,-61.18859492,-61.54190337,-170.22359160,-61.41326028
-60.50081437,-109.50953947

>  <CHROM.1>
-15.19869384,85.67355897,-55.87316488,-68.12278787,-26.09431428,179.64012587
19.95061854,28.82775589,69.99566682,0.31336392,-0.68130135,0.69397687

>  <FORMUL>
      TOL    C16 H14 F3 N1 O3 S1

>  <HET>
 TOL  A 320      24

>  <HETNAM>
     TOL TOLRESTAT

>  <Name>
TOL.pdb

>  <RI>
0

>  <Rbt.Current_Directory>
/home/malgorzata/Desktop/rDOCK_IFD/Wyniki/1_aldose_reductase

>  <Rbt.Executable>
rbdock ($Id: //depot/dev/client3/rdock/2013.1/src/exe/rbdock.cxx#4 $)

>  <Rbt.Library>
libRbt.so (2013.1, Build901 2013/11/27)

>  <Rbt.Parameter_File>
/home/malgorzata/Desktop/rDock_2013.1_src/data/scripts/soft_docking.prm

>  <Rbt.Receptor>
cavity.prm

>  <SCORE>
-46.5223

>  <SCORE.INTER>
-32.5755

>  <SCORE.INTER.CONST>
1

>  <SCORE.INTER.POLAR>
-1.11197

>  <SCORE.INTER.REPUL>
0

>  <SCORE.INTER.ROT>
5

>  <SCORE.INTER.VDW>
-39.1947

>  <SCORE.INTER.norm>
-1.35731

>  <SCORE.INTRA>
-4.02372

>  <SCORE.INTRA.DIHEDRAL>
1.07816

>  <SCORE.INTRA.DIHEDRAL.0>
16.9783

>  <SCORE.INTRA.POLAR>
0

>  <SCORE.INTRA.POLAR.0>
0

>  <SCORE.INTRA.REPUL>
0

>  <SCORE.INTRA.REPUL.0>
0

>  <SCORE.INTRA.VDW>
-4.23935

>  <SCORE.INTRA.VDW.0>
4.87734

>  <SCORE.INTRA.norm>
-0.167655

>  <SCORE.RESTR>
0

>  <SCORE.RESTR.CAVITY>
0

>  <SCORE.RESTR.norm>
0

>  <SCORE.SYSTEM>
-9.92312

>  <SCORE.SYSTEM.CONST>
0

>  <SCORE.SYSTEM.DIHEDRAL>
5.70003

>  <SCORE.SYSTEM.POLAR>
-3.66308

>  <SCORE.SYSTEM.REPUL>
1.16943

>  <SCORE.SYSTEM.VDW>
-6.16583

>  <SCORE.SYSTEM.norm>
-0.413463

>  <SCORE.heavy>
24

>  <SCORE.norm>
-1.93843

$$$$
TOL.pdb
  rDOCK(R)          3D
libRbt.so/2013.1/901 2013/11/27
 25 26  0  0  0  0  0  0  0  0999 V2000
   19.2602   26.9095   62.9596 C   0  0  0  0  0  0
   19.6027   28.1840   62.6446 F   0  0  0  0  0  0
   18.7070   26.3622   61.8448 F   0  0  0  0  0  0
   20.4015   26.2196   63.2240 F   0  0  0  0  0  0
   18.2995   26.8613   64.1675 C   0  0  0  0  0  0
   17.2138   25.9541   64.2779 C   0  0  0  0  0  0
   16.9846   25.0874   63.3080 O   0  0  0  0  0  0
   16.0385   25.5551   62.3608 C   0  0  0  0  0  0
   16.3914   25.9954   65.4252 C   0  0  0  0  0  0
   16.6360   26.9171   66.4494 C   0  0  0  0  0  0
   17.7115   27.8209   66.3423 C   0  0  0  0  0  0
   17.9472   28.7486   67.3838 C   0  0  0  0  0  0
   19.0202   29.6485   67.2769 C   0  0  0  0  0  0
   19.8483   29.6312   66.1523 C   0  0  0  0  0  0
   19.6113   28.7104   65.1241 C   0  0  0  0  0  0
   18.5434   27.7976   65.2069 C   0  0  0  0  0  0
   17.1037   28.8370   68.6338 C   0  0  0  0  0  0
   15.8528   30.0045   68.7259 S   0  0  0  0  0  0
   17.3331   27.9964   69.6438 N   0  0  0  0  0  0
   18.3317   26.9431   69.4981 C   0  0  0  0  0  0
   16.5935   28.0874   70.8987 C   0  0  0  0  0  0
   17.2936   29.0194   71.9025 C   0  0  0  0  0  0
   16.7228   29.9351   72.4342 O   0  0  0  0  0  0
   18.5777   28.7367   72.1484 O   0  0  0  0  0  0
   18.9630   27.9604   71.7923 H   0  0  0  0  0  0
  1  2  1  0  0  0
  1  3  1  0  0  0
  1  4  1  0  0  0
  1  5  1  0  0  0
  5  6  2  0  0  0
  5 16  1  0  0  0
  6  7  1  0  0  0
  6  9  1  0  0  0
  7  8  1  0  0  0
  9 10  2  0  0  0
 10 11  1  0  0  0
 11 12  2  0  0  0
 11 16  1  0  0  0
 12 13  1  0  0  0
 12 17  1  0  0  0
 13 14  2  0  0  0
 14 15  1  0  0  0
 15 16  2  0  0  0
 17 18  2  0  0  0
 17 19  1  0  0  0
 19 20  1  0  0  0
 19 21  1  0  0  0
 21 22  1  0  0  0
 22 23  2  0  0  0
 22 24  1  0  0  0
 24 25  1  0  0  0
M  END
>  <CHROM.0>
-2.57139286,146.98863494,86.66802774,170.34856520,179.30964051,-14.15035631
-171.48703851,152.25192840,-61.18859492,-61.54190337,72.89282056,-61.41326028
-60.50081437,-68.17215428

>  <CHROM.1>
141.77819374,-93.91188371,-97.28395341,-89.81149570,126.84290629,-6.57345510
17.86767476,27.81689166,66.59825524,-1.39183208,0.52913404,1.16366547

>  <FORMUL>
      TOL    C16 H14 F3 N1 O3 S1

>  <HET>
 TOL  A 320      24

>  <HETNAM>
     TOL TOLRESTAT

>  <Name>
TOL.pdb

>  <RI>
0

>  <Rbt.Current_Directory>
/home/malgorzata/Desktop/rDOCK_IFD/Wyniki/1_aldose_reductase

>  <Rbt.Executable>
rbdock ($Id: //depot/dev/client3/rdock/2013.1/src/exe/rbdock.cxx#4 $)

>  <Rbt.Library>
libRbt.so (2013.1, Build901 2013/11/27)

>  <Rbt.Parameter_File>
/home/malgorzata/Desktop/rDock_2013.1_src/data/scripts/soft_docking.prm

>  <Rbt.Receptor>
cavity.prm

>  <SCORE>
-36.1531

>  <SCORE.INTER>
-28.0659

>  <SCORE.INTER.CONST>
1

>  <SCORE.INTER.POLAR>
-1.6854

>  <SCORE.INTER.REPUL>
0.0778723

>  <SCORE.INTER.ROT>
5

>  <SCORE.INTER.VDW>
-33.1249

>  <SCORE.INTER.norm>
-1.16941

>  <SCORE.INTRA>
-4.64218

>  <SCORE.INTRA.DIHEDRAL>
5.08805

>  <SCORE.INTRA.DIHEDRAL.0>
16.9783

>  <SCORE.INTRA.POLAR>
0

>  <SCORE.INTRA.POLAR.0>
0

>  <SCORE.INTRA.REPUL>
0

>  <SCORE.INTRA.REPUL.0>
0

>  <SCORE.INTRA.VDW>
-5.65979

>  <SCORE.INTRA.VDW.0>
4.87734

>  <SCORE.INTRA.norm>
-0.193424

>  <SCORE.RESTR>
0

>  <SCORE.RESTR.CAVITY>
0

>  <SCORE.RESTR.norm>
0

>  <SCORE.SYSTEM>
-3.44498

>  <SCORE.SYSTEM.CONST>
0

>  <SCORE.SYSTEM.DIHEDRAL>
12.9817

>  <SCORE.SYSTEM.POLAR>
-2.60212

>  <SCORE.SYSTEM.REPUL>
1.16943

>  <SCORE.SYSTEM.VDW>
-6.93581

>  <SCORE.SYSTEM.norm>
-0.143541

>  <SCORE.heavy>
24

>  <SCORE.norm>
-1.50638

$$$$
TOL.pdb
  rDOCK(R)          3D
libRbt.so/2013.1/901 2013/11/27
 25 26  0  0  0  0  0  0  0  0999 V2000
   15.9686   30.3080   63.1094 C   0  0  0  0  0  0
   16.7811   29.3962   62.5185 F   0  0  0  0  0  0
   16.3413   31.5297   62.6438 F   0  0  0  0  0  0
   14.6987   30.0824   62.6789 F   0  0  0  0  0  0
   16.0469   30.2254   64.6493 C   0  0  0  0  0  0
   14.9881   30.6024   65.5158 C   0  0  0  0  0  0
   13.8561   31.0541   65.0069 O   0  0  0  0  0  0
   13.7206   32.4610   65.1224 C   0  0  0  0  0  0
   15.1639   30.4912   66.9125 C   0  0  0  0  0  0
   16.3660   30.0146   67.4477 C   0  0  0  0  0  0
   17.4203   29.6417   66.5909 C   0  0  0  0  0  0
   18.6307   29.1629   67.1445 C   0  0  0  0  0  0
   19.6810   28.7902   66.2896 C   0  0  0  0  0  0
   19.5351   28.8918   64.9043 C   0  0  0  0  0  0
   18.3345   29.3658   64.3609 C   0  0  0  0  0  0
   17.2667   29.7452   65.1954 C   0  0  0  0  0  0
   18.8746   29.0201   68.6284 C   0  0  0  0  0  0
   19.1875   30.4174   69.5696 S   0  0  0  0  0  0
   18.8291   27.8110   69.1898 N   0  0  0  0  0  0
   18.4555   26.6521   68.3865 C   0  0  0  0  0  0
   19.1269   27.6121   70.6046 C   0  0  0  0  0  0
   20.5847   27.1708   70.8200 C   0  0  0  0  0  0
   20.8927   26.0157   70.9541 O   0  0  0  0  0  0
   21.4861   28.1589   70.8405 O   0  0  0  0  0  0
   21.3232   28.9515   70.3680 H   0  0  0  0  0  0
  1  2  1  0  0  0
  1  3  1  0  0  0
  1  4  1  0  0  0
  1  5  1  0  0  0
  5  6  2  0  0  0
  5 16  1  0  0  0
  6  7  1  0  0  0
  6  9  1  0  0  0
  7  8  1  0  0  0
  9 10  2  0  0  0
 10 11  1  0  0  0
 11 12  2  0  0  0
 11 16  1  0  0  0
 12 13  1  0  0  0
 12 17  1  0  0  0
 13 14  2  0  0  0
 14 15  1  0  0  0
 15 16  2  0  0  0
 17 18  2  0  0  0
 17 19  1  0  0  0
 19 20  1  0  0  0
 19 21  1  0  0  0
 21 22  1  0  0  0
 22 23  2  0  0  0
 22 24  1  0  0  0
 24 25  1  0  0  0
M  END
>  <CHROM.0>
4.43550102,-58.67607052,-92.45996357,170.27605713,-128.93842912,53.53378987
106.22242310,-134.68721973,-61.18859492,-61.54190337,-76.90855583,-61.41326028
-60.50081437,-123.34137539

>  <CHROM.1>
-152.70330777,-103.85183207,-75.79811330,-96.78454034,-96.91043798,-27.74282375
17.62802042,29.42989616,66.67553583,-2.31661801,-0.60661565,1.50860637

>  <FORMUL>
      TOL    C16 H14 F3 N1 O3 S1

>  <HET>
 TOL  A 320      24

>  <HETNAM>
     TOL TOLRESTAT

>  <Name>
TOL.pdb

>  <RI>
0

>  <Rbt.Current_Directory>
/home/malgorzata/Desktop/rDOCK_IFD/Wyniki/1_aldose_reductase

>  <Rbt.Executable>
rbdock ($Id: //depot/dev/client3/rdock/2013.1/src/exe/rbdock.cxx#4 $)

>  <Rbt.Library>
libRbt.so (2013.1, Build901 2013/11/27)

>  <Rbt.Parameter_File>
/home/malgorzata/Desktop/rDock_2013.1_src/data/scripts/soft_docking.prm

>  <Rbt.Receptor>
cavity.prm

>  <SCORE>
-37.0828

>  <SCORE.INTER>
-23.8293

>  <SCORE.INTER.CONST>
1

>  <SCORE.INTER.POLAR>
-0.780501

>  <SCORE.INTER.REPUL>
0.211415

>  <SCORE.INTER.ROT>
5

>  <SCORE.INTER.VDW>
-32.6326

>  <SCORE.INTER.norm>
-0.992886

>  <SCORE.INTRA>
-3.30028

>  <SCORE.INTRA.DIHEDRAL>
9.09423

>  <SCORE.INTRA.DIHEDRAL.0>
16.9783

>  <SCORE.INTRA.POLAR>
-0.030032

>  <SCORE.INTRA.POLAR.0>
0

>  <SCORE.INTRA.REPUL>
0

>  <SCORE.INTRA.REPUL.0>
0

>  <SCORE.INTRA.VDW>
-5.01702

>  <SCORE.INTRA.VDW.0>
4.87734

>  <SCORE.INTRA.norm>
-0.137512

>  <SCORE.RESTR>
0.176

>  <SCORE.RESTR.CAVITY>
0.176

>  <SCORE.RESTR.norm>
0.00733334

>  <SCORE.SYSTEM>
-10.1292

>  <SCORE.SYSTEM.CONST>
0

>  <SCORE.SYSTEM.DIHEDRAL>
10.2322

>  <SCORE.SYSTEM.POLAR>
-3.71938

>  <SCORE.SYSTEM.REPUL>
1.16943

>  <SCORE.SYSTEM.VDW>
-8.44662

>  <SCORE.SYSTEM.norm>
-0.422051

>  <SCORE.heavy>
24

>  <SCORE.norm>
-1.54512

$$$$
TOL.pdb
  rDOCK(R)          3D
libRbt.so/2013.1/901 2013/11/27
 25 26  0  0  0  0  0  0  0  0999 V2000
   15.6290   29.7999   65.3422 C   0  0  0  0  0  0
   15.6968   29.5757   64.0058 F   0  0  0  0  0  0
   15.5134   31.1438   65.5119 F   0  0  0  0  0  0
   14.4829   29.2346   65.8066 F   0  0  0  0  0  0
   16.8591   29.2259   66.0779 C   0  0  0  0  0  0
   18.0555   28.8285   65.4260 C   0  0  0  0  0  0
   18.1545   28.9439   64.1140 O   0  0  0  0  0  0
   18.5744   27.7450   63.4837 C   0  0  0  0  0  0
   19.1225   28.3113   66.1928 C   0  0  0  0  0  0
   19.0125   28.1881   67.5825 C   0  0  0  0  0  0
   17.8256   28.5792   68.2330 C   0  0  0  0  0  0
   17.7264   28.4483   69.6380 C   0  0  0  0  0  0
   16.5433   28.8395   70.2860 C   0  0  0  0  0  0
   15.4714   29.3524   69.5519 C   0  0  0  0  0  0
   15.5746   29.4807   68.1612 C   0  0  0  0  0  0
   16.7491   29.0967   67.4878 C   0  0  0  0  0  0
   18.8346   27.9051   70.5091 C   0  0  0  0  0  0
   19.1175   26.2158   70.5577 S   0  0  0  0  0  0
   19.5880   28.7475   71.2177 N   0  0  0  0  0  0
   19.3962   30.1866   71.0761 C   0  0  0  0  0  0
   20.6237   28.2681   72.1274 C   0  0  0  0  0  0
   21.8372   27.7131   71.3622 C   0  0  0  0  0  0
   21.8259   26.6300   70.8391 O   0  0  0  0  0  0
   22.9023   28.5209   71.3125 O   0  0  0  0  0  0
   22.9005   29.3284   71.7877 H   0  0  0  0  0  0
  1  2  1  0  0  0
  1  3  1  0  0  0
  1  4  1  0  0  0
  1  5  1  0  0  0
  5  6  2  0  0  0
  5 16  1  0  0  0
  6  7  1  0  0  0
  6  9  1  0  0  0
  7  8  1  0  0  0
  9 10  2  0  0  0
 10 11  1  0  0  0
 11 12  2  0  0  0
 11 16  1  0  0  0
 12 13  1  0  0  0
 12 17  1  0  0  0
 13 14  2  0  0  0
 14 15  1  0  0  0
 15 16  2  0  0  0
 17 18  2  0  0  0
 17 19  1  0  0  0
 19 20  1  0  0  0
 19 21  1  0  0  0
 21 22  1  0  0  0
 22 23  2  0  0  0
 22 24  1  0  0  0
 24 25  1  0  0  0
M  END
>  <CHROM.0>
-139.42000251,-3.89471265,79.67861990,170.67035367,147.21085526,-165.81040194
-38.87777605,-75.55937268,-61.18859492,-61.54190337,51.41200201,-61.41326028
-60.50081437,154.29683333

>  <CHROM.1>
15.05572284,-128.44407171,-76.83138928,72.37112847,-76.87567691,5.17614947
18.14629651,28.62566407,68.17510127,2.24165280,0.36393269,-1.57861720

>  <FORMUL>
      TOL    C16 H14 F3 N1 O3 S1

>  <HET>
 TOL  A 320      24

>  <HETNAM>
     TOL TOLRESTAT

>  <Name>
TOL.pdb

>  <RI>
0

>  <Rbt.Current_Directory>
/home/malgorzata/Desktop/rDOCK_IFD/Wyniki/1_aldose_reductase

>  <Rbt.Executable>
rbdock ($Id: //depot/dev/client3/rdock/2013.1/src/exe/rbdock.cxx#4 $)

>  <Rbt.Library>
libRbt.so (2013.1, Build901 2013/11/27)

>  <Rbt.Parameter_File>
/home/malgorzata/Desktop/rDock_2013.1_src/data/scripts/soft_docking.prm

>  <Rbt.Receptor>
cavity.prm

>  <SCORE>
-37.833

>  <SCORE.INTER>
-32.2359

>  <SCORE.INTER.CONST>
1

>  <SCORE.INTER.POLAR>
-1.62316

>  <SCORE.INTER.REPUL>
0.121582

>  <SCORE.INTER.ROT>
5

>  <SCORE.INTER.VDW>
-37.725

>  <SCORE.INTER.norm>
-1.34316

>  <SCORE.INTRA>
-3.62459

>  <SCORE.INTRA.DIHEDRAL>
2.78208

>  <SCORE.INTRA.DIHEDRAL.0>
16.9783

>  <SCORE.INTRA.POLAR>
0

>  <SCORE.INTRA.POLAR.0>
0

>  <SCORE.INTRA.REPUL>
0

>  <SCORE.INTRA.REPUL.0>
0

>  <SCORE.INTRA.VDW>
-4.18101

>  <SCORE.INTRA.VDW.0>
4.87734

>  <SCORE.INTRA.norm>
-0.151025

>  <SCORE.RESTR>
0

>  <SCORE.RESTR.CAVITY>
0

>  <SCORE.RESTR.norm>
0

>  <SCORE.SYSTEM>
-1.97257

>  <SCORE.SYSTEM.CONST>
0

>  <SCORE.SYSTEM.DIHEDRAL>
16.5033

>  <SCORE.SYSTEM.POLAR>
-2.91448

>  <SCORE.SYSTEM.REPUL>
1.20083

>  <SCORE.SYSTEM.VDW>
-6.31914

>  <SCORE.SYSTEM.norm>
-0.0821904

>  <SCORE.heavy>
24

>  <SCORE.norm>
-1.57638

$$$$
TOL.pdb
  rDOCK(R)          3D
libRbt.so/2013.1/901 2013/11/27
 25 26  0  0  0  0  0  0  0  0999 V2000
   16.0174   29.6642   62.9164 C   0  0  0  0  0  0
   14.8873   30.2512   63.3845 F   0  0  0  0  0  0
   15.6361   28.7879   61.9496 F   0  0  0  0  0  0
   16.7728   30.6228   62.3170 F   0  0  0  0  0  0
   16.8087   28.9722   64.0474 C   0  0  0  0  0  0
   17.6140   27.8192   63.8574 C   0  0  0  0  0  0
   17.7139   27.2824   62.6548 O   0  0  0  0  0  0
   16.7945   26.2235   62.4439 C   0  0  0  0  0  0
   18.2949   27.2609   64.9614 C   0  0  0  0  0  0
   18.1842   27.8312   66.2346 C   0  0  0  0  0  0
   17.3837   28.9744   66.4277 C   0  0  0  0  0  0
   17.2790   29.5404   67.7199 C   0  0  0  0  0  0
   16.4817   30.6807   67.9115 C   0  0  0  0  0  0
   15.7956   31.2524   66.8376 C   0  0  0  0  0  0
   15.9030   30.6888   65.5600 C   0  0  0  0  0  0
   16.6956   29.5468   65.3412 C   0  0  0  0  0  0
   17.9855   28.9889   68.9359 C   0  0  0  0  0  0
   17.1488   27.9249   69.9867 S   0  0  0  0  0  0
   19.2552   29.3249   69.1685 N   0  0  0  0  0  0
   19.9769   30.1456   68.2023 C   0  0  0  0  0  0
   19.9590   28.8757   70.3655 C   0  0  0  0  0  0
   20.6417   27.5150   70.1441 C   0  0  0  0  0  0
   20.5052   26.5964   70.9086 O   0  0  0  0  0  0
   21.3908   27.4221   69.0398 O   0  0  0  0  0  0
   21.9073   26.6554   68.8872 H   0  0  0  0  0  0
  1  2  1  0  0  0
  1  3  1  0  0  0
  1  4  1  0  0  0
  1  5  1  0  0  0
  5  6  2  0  0  0
  5 16  1  0  0  0
  6  7  1  0  0  0
  6  9  1  0  0  0
  7  8  1  0  0  0
  9 10  2  0  0  0
 10 11  1  0  0  0
 11 12  2  0  0  0
 11 16  1  0  0  0
 12 13  1  0  0  0
 12 17  1  0  0  0
 13 14  2  0  0  0
 14 15  1  0  0  0
 15 16  2  0  0  0
 17 18  2  0  0  0
 17 19  1  0  0  0
 19 20  1  0  0  0
 19 21  1  0  0  0
 21 22  1  0  0  0
 22 23  2  0  0  0
 22 24  1  0  0  0
 24 25  1  0  0  0
M  END
>  <CHROM.0>
-5.31314055,31.22559254,-123.94280648,167.56126410,165.14748747,168.87294704
152.02798042,172.69424826,-61.18859492,-61.54190337,-167.75745887,-61.41326028
-60.50081437,26.52740269

>  <CHROM.1>
149.49549958,-94.70120701,-95.94278511,88.64573942,-129.96886450,173.57618049
17.67327879,28.78848686,66.36187787,2.23931257,0.81483797,-1.95323181

>  <FORMUL>
      TOL    C16 H14 F3 N1 O3 S1

>  <HET>
 TOL  A 320      24

>  <HETNAM>
     TOL TOLRESTAT

>  <Name>
TOL.pdb

>  <RI>
0

>  <Rbt.Current_Directory>
/home/malgorzata/Desktop/rDOCK_IFD/Wyniki/1_aldose_reductase

>  <Rbt.Executable>
rbdock ($Id: //depot/dev/client3/rdock/2013.1/src/exe/rbdock.cxx#4 $)

>  <Rbt.Library>
libRbt.so (2013.1, Build901 2013/11/27)

>  <Rbt.Parameter_File>
/home/malgorzata/Desktop/rDock_2013.1_src/data/scripts/soft_docking.prm

>  <Rbt.Receptor>
cavity.prm

>  <SCORE>
-42.4065

>  <SCORE.INTER>
-25.1414

>  <SCORE.INTER.CONST>
1

>  <SCORE.INTER.POLAR>
-1.17957

>  <SCORE.INTER.REPUL>
0.101988

>  <SCORE.INTER.ROT>
5

>  <SCORE.INTER.VDW>
-32.0408

>  <SCORE.INTER.norm>
-1.04756

>  <SCORE.INTRA>
-4.42866

>  <SCORE.INTRA.DIHEDRAL>
5.25204

>  <SCORE.INTRA.DIHEDRAL.0>
16.9783

>  <SCORE.INTRA.POLAR>
0

>  <SCORE.INTRA.POLAR.0>
0

>  <SCORE.INTRA.REPUL>
0

>  <SCORE.INTRA.REPUL.0>
0

>  <SCORE.INTRA.VDW>
-5.47906

>  <SCORE.INTRA.VDW.0>
4.87734

>  <SCORE.INTRA.norm>
-0.184527

>  <SCORE.RESTR>
0.103916

>  <SCORE.RESTR.CAVITY>
0.103916

>  <SCORE.RESTR.norm>
0.00432983

>  <SCORE.SYSTEM>
-12.9404

>  <SCORE.SYSTEM.CONST>
0

>  <SCORE.SYSTEM.DIHEDRAL>
7.47995

>  <SCORE.SYSTEM.POLAR>
-4.33084

>  <SCORE.SYSTEM.REPUL>
1.16943

>  <SCORE.SYSTEM.VDW>
-7.80271

>  <SCORE.SYSTEM.norm>
-0.539184

>  <SCORE.heavy>
24

>  <SCORE.norm>
-1.76694

$$$$
TOL.pdb
  rDOCK(R)          3D
libRbt.so/2013.1/901 2013/11/27
 25 26  0  0  0  0  0  0  0  0999 V2000
   23.4442   28.0862   74.2144 C   0  0  0  0  0  0
   22.6870   28.0303   75.3389 F   0  0  0  0  0  0
   23.9378   29.3503   74.1330 F   0  0  0  0  0  0
   24.5032   27.2493   74.3774 F   0  0  0  0  0  0
   22.6295   27.6997   72.9610 C   0  0  0  0  0  0
   22.7844   26.4725   72.2652 C   0  0  0  0  0  0
   23.6686   25.5877   72.6891 O   0  0  0  0  0  0
   24.8317   25.5368   71.8794 C   0  0  0  0  0  0
   21.9906   26.2182   71.1253 C   0  0  0  0  0  0
   21.0568   27.1596   70.6778 C   0  0  0  0  0  0
   20.9018   28.3801   71.3644 C   0  0  0  0  0  0
   19.9555   29.3238   70.9011 C   0  0  0  0  0  0
   19.8006   30.5398   71.5868 C   0  0  0  0  0  0
   20.5741   30.8184   72.7160 C   0  0  0  0  0  0
   21.5092   29.8805   73.1712 C   0  0  0  0  0  0
   21.6834   28.6545   72.5027 C   0  0  0  0  0  0
   19.0780   29.1057   69.6910 C   0  0  0  0  0  0
   19.6360   29.5937   68.1462 S   0  0  0  0  0  0
   17.8870   28.5231   69.8377 N   0  0  0  0  0  0
   17.4817   28.0207   71.1458 C   0  0  0  0  0  0
   16.9737   28.3540   68.7120 C   0  0  0  0  0  0
   16.1624   29.6332   68.4438 C   0  0  0  0  0  0
   16.6624   30.6262   67.9847 O   0  0  0  0  0  0
   14.8620   29.5622   68.7493 O   0  0  0  0  0  0
   14.4068   30.3274   69.0412 H   0  0  0  0  0  0
  1  2  1  0  0  0
  1  3  1  0  0  0
  1  4  1  0  0  0
  1  5  1  0  0  0
  5  6  2  0  0  0
  5 16  1  0  0  0
  6  7  1  0  0  0
  6  9  1  0  0  0
  7  8  1  0  0  0
  9 10  2  0  0  0
 10 11  1  0  0  0
 11 12  2  0  0  0
 11 16  1  0  0  0
 12 13  1  0  0  0
 12 17  1  0  0  0
 13 14  2  0  0  0
 14 15  1  0  0  0
 15 16  2  0  0  0
 17 18  2  0  0  0
 17 19  1  0  0  0
 19 20  1  0  0  0
 19 21  1  0  0  0
 21 22  1  0  0  0
 22 23  2  0  0  0
 22 24  1  0  0  0
 24 25  1  0  0  0
M  END
>  <CHROM.0>
82.30423670,55.12079678,-96.86010108,-0.86863042,-57.99653691,-66.93135902
115.52383161,27.07876391,-61.18859492,-61.54190337,-129.66850621,-61.41326028
-60.50081437,130.03437292

>  <CHROM.1>
-107.06872995,-105.02843583,-89.57509385,-82.40877594,70.84614968,148.43317645
20.62647414,28.47517682,71.36466267,0.23169637,-0.64082832,0.78778038

>  <FORMUL>
      TOL    C16 H14 F3 N1 O3 S1

>  <HET>
 TOL  A 320      24

>  <HETNAM>
     TOL TOLRESTAT

>  <Name>
TOL.pdb

>  <RI>
0

>  <Rbt.Current_Directory>
/home/malgorzata/Desktop/rDOCK_IFD/Wyniki/1_aldose_reductase

>  <Rbt.Executable>
rbdock ($Id: //depot/dev/client3/rdock/2013.1/src/exe/rbdock.cxx#4 $)

>  <Rbt.Library>
libRbt.so (2013.1, Build901 2013/11/27)

>  <Rbt.Parameter_File>
/home/malgorzata/Desktop/rDock_2013.1_src/data/scripts/soft_docking.prm

>  <Rbt.Receptor>
cavity.prm

>  <SCORE>
-46.592

>  <SCORE.INTER>
-33.804

>  <SCORE.INTER.CONST>
1

>  <SCORE.INTER.POLAR>
-2.66292

>  <SCORE.INTER.REPUL>
0.382493

>  <SCORE.INTER.ROT>
5

>  <SCORE.INTER.VDW>
-37.0626

>  <SCORE.INTER.norm>
-1.4085

>  <SCORE.INTRA>
-5.04966

>  <SCORE.INTRA.DIHEDRAL>
11.1234

>  <SCORE.INTRA.DIHEDRAL.0>
16.9783

>  <SCORE.INTRA.POLAR>
0

>  <SCORE.INTRA.POLAR.0>
0

>  <SCORE.INTRA.REPUL>
0

>  <SCORE.INTRA.REPUL.0>
0

>  <SCORE.INTRA.VDW>
-7.27433

>  <SCORE.INTRA.VDW.0>
4.87734

>  <SCORE.INTRA.norm>
-0.210403

>  <SCORE.RESTR>
0.157241

>  <SCORE.RESTR.CAVITY>
0.157241

>  <SCORE.RESTR.norm>
0.00655171

>  <SCORE.SYSTEM>
-7.89561

>  <SCORE.SYSTEM.CONST>
0

>  <SCORE.SYSTEM.DIHEDRAL>
13.6194

>  <SCORE.SYSTEM.POLAR>
-3.73724

>  <SCORE.SYSTEM.REPUL>
1.16943

>  <SCORE.SYSTEM.VDW>
-7.84584

>  <SCORE.SYSTEM.norm>
-0.328984

>  <SCORE.heavy>
24

>  <SCORE.norm>
-1.94134

$$$$
