TOL.pdb
  rDOCK(R)          3D
libRbt.so/2013.1/901 2013/11/27
 25 26  0  0  0  0  0  0  0  0999 V2000
   17.8664   29.4996   62.3459 C   0  0  0  0  0  0
   18.3929   30.7463   62.4432 F   0  0  0  0  0  0
   16.5266   29.6492   62.1711 F   0  0  0  0  0  0
   18.3584   28.9214   61.2179 F   0  0  0  0  0  0
   18.1976   28.6443   63.5880 C   0  0  0  0  0  0
   18.9086   27.4172   63.5358 C   0  0  0  0  0  0
   19.3256   26.9521   62.3722 O   0  0  0  0  0  0
   18.7087   25.7266   62.0134 C   0  0  0  0  0  0
   19.1565   26.7096   64.7325 C   0  0  0  0  0  0
   18.7106   27.2045   65.9632 C   0  0  0  0  0  0
   18.0022   28.4211   66.0188 C   0  0  0  0  0  0
   17.5557   28.9099   67.2688 C   0  0  0  0  0  0
   16.8506   30.1233   67.3237 C   0  0  0  0  0  0
   16.5896   30.8430   66.1554 C   0  0  0  0  0  0
   17.0344   30.3553   64.9202 C   0  0  0  0  0  0
   17.7435   29.1425   64.8379 C   0  0  0  0  0  0
   17.7937   28.1985   68.5800 C   0  0  0  0  0  0
   16.5563   27.2156   69.2426 S   0  0  0  0  0  0
   18.9682   28.3324   69.1980 N   0  0  0  0  0  0
   20.0412   29.0874   68.5605 C   0  0  0  0  0  0
   19.2221   27.7234   70.4998 C   0  0  0  0  0  0
   18.8017   28.6526   71.6515 C   0  0  0  0  0  0
   19.4083   29.6556   71.9213 O   0  0  0  0  0  0
   17.7114   28.2719   72.3267 O   0  0  0  0  0  0
   17.4246   27.3807   72.2892 H   0  0  0  0  0  0
  1  2  1  0  0  0
  1  3  1  0  0  0
  1  4  1  0  0  0
  1  5  1  0  0  0
  5  6  2  0  0  0
  5 16  1  0  0  0
  6  7  1  0  0  0
  6  9  1  0  0  0
  7  8  1  0  0  0
  9 10  2  0  0  0
 10 11  1  0  0  0
 11 12  2  0  0  0
 11 16  1  0  0  0
 12 13  1  0  0  0
 12 17  1  0  0  0
 13 14  2  0  0  0
 14 15  1  0  0  0
 15 16  2  0  0  0
 17 18  2  0  0  0
 17 19  1  0  0  0
 19 20  1  0  0  0
 19 21  1  0  0  0
 21 22  1  0  0  0
 22 23  2  0  0  0
 22 24  1  0  0  0
 24 25  1  0  0  0
M  END
>  <CHROM.0>
-38.06206149,-163.57729617,-61.69354485,175.11689716,59.58371114,-64.44008838
-5.15550674,-125.16785250,-61.18859492,-61.54190337,-85.72827740,-61.41326028
-60.50081437,-34.92983788

>  <CHROM.1>
-120.99840102,-115.58534033,-97.82218819,-88.09580636,-70.94613767,20.02169138
18.11037447,28.55717202,66.25090569,1.60897935,1.15558520,-1.58060945

>  <FORMUL>
      TOL    C16 H14 F3 N1 O3 S1

>  <HET>
 TOL  A 320      24

>  <HETNAM>
     TOL TOLRESTAT

>  <Name>
TOL.pdb

>  <RI>
-1.88925e+09

>  <Rbt.Current_Directory>
/home/malgorzata/Desktop/rDOCK_IFD/Wyniki/1_aldose_reductase

>  <Rbt.Executable>
rbdock ($Id: //depot/dev/client3/rdock/2013.1/src/exe/rbdock.cxx#4 $)

>  <Rbt.Library>
libRbt.so (2013.1, Build901 2013/11/27)

>  <Rbt.Parameter_File>
/home/malgorzata/Desktop/rDock_2013.1_src/data/scripts/soft_docking.prm

>  <Rbt.Receptor>
cavity.prm

>  <SCORE>
-36.4891

>  <SCORE.INTER>
-23.2791

>  <SCORE.INTER.CONST>
1

>  <SCORE.INTER.POLAR>
-0.27739

>  <SCORE.INTER.REPUL>
0

>  <SCORE.INTER.ROT>
5

>  <SCORE.INTER.VDW>
-32.736

>  <SCORE.INTER.norm>
-0.969965

>  <SCORE.INTRA>
-5.48766

>  <SCORE.INTRA.DIHEDRAL>
6.53485

>  <SCORE.INTRA.DIHEDRAL.0>
16.9783

>  <SCORE.INTRA.POLAR>
0

>  <SCORE.INTRA.POLAR.0>
0

>  <SCORE.INTRA.REPUL>
0

>  <SCORE.INTRA.REPUL.0>
0

>  <SCORE.INTRA.VDW>
-6.79463

>  <SCORE.INTRA.VDW.0>
4.87734

>  <SCORE.INTRA.norm>
-0.228653

>  <SCORE.RESTR>
0.0224287

>  <SCORE.RESTR.CAVITY>
0.0224287

>  <SCORE.RESTR.norm>
0.000934529

>  <SCORE.SYSTEM>
-7.74469

>  <SCORE.SYSTEM.CONST>
0

>  <SCORE.SYSTEM.DIHEDRAL>
7.59994

>  <SCORE.SYSTEM.POLAR>
-2.68008

>  <SCORE.SYSTEM.REPUL>
1.16943

>  <SCORE.SYSTEM.VDW>
-8.27956

>  <SCORE.SYSTEM.norm>
-0.322695

>  <SCORE.heavy>
24

>  <SCORE.norm>
-1.52038

$$$$
TOL.pdb
  rDOCK(R)          3D
libRbt.so/2013.1/901 2013/11/27
 25 26  0  0  0  0  0  0  0  0999 V2000
   16.1001   28.7674   64.6121 C   0  0  0  0  0  0
   15.0723   29.2536   65.3524 F   0  0  0  0  0  0
   15.7841   27.4845   64.2919 F   0  0  0  0  0  0
   16.1527   29.4719   63.4503 F   0  0  0  0  0  0
   17.4417   28.8625   65.3706 C   0  0  0  0  0  0
   18.6636   29.2601   64.7682 C   0  0  0  0  0  0
   18.6886   29.5739   63.4856 O   0  0  0  0  0  0
   18.5218   28.4493   62.6379 C   0  0  0  0  0  0
   19.8373   29.3105   65.5519 C   0  0  0  0  0  0
   19.8071   28.9746   66.9101 C   0  0  0  0  0  0
   18.5964   28.5771   67.5111 C   0  0  0  0  0  0
   18.5795   28.2387   68.8845 C   0  0  0  0  0  0
   17.3720   27.8436   69.4833 C   0  0  0  0  0  0
   16.1965   27.7829   68.7314 C   0  0  0  0  0  0
   16.2182   28.1196   67.3721 C   0  0  0  0  0  0
   17.4147   28.5191   66.7483 C   0  0  0  0  0  0
   19.8014   28.2766   69.7718 C   0  0  0  0  0  0
   20.8862   26.9502   69.7698 S   0  0  0  0  0  0
   20.0284   29.3473   70.5343 N   0  0  0  0  0  0
   19.1481   30.5064   70.4375 C   0  0  0  0  0  0
   21.1553   29.4027   71.4601 C   0  0  0  0  0  0
   20.9514   28.4591   72.6577 C   0  0  0  0  0  0
   21.4837   27.3825   72.7247 O   0  0  0  0  0  0
   20.1479   28.9216   73.6220 O   0  0  0  0  0  0
   19.3212   29.3028   73.4001 H   0  0  0  0  0  0
  1  2  1  0  0  0
  1  3  1  0  0  0
  1  4  1  0  0  0
  1  5  1  0  0  0
  5  6  2  0  0  0
  5 16  1  0  0  0
  6  7  1  0  0  0
  6  9  1  0  0  0
  7  8  1  0  0  0
  9 10  2  0  0  0
 10 11  1  0  0  0
 11 12  2  0  0  0
 11 16  1  0  0  0
 12 13  1  0  0  0
 12 17  1  0  0  0
 13 14  2  0  0  0
 14 15  1  0  0  0
 15 16  2  0  0  0
 17 18  2  0  0  0
 17 19  1  0  0  0
 19 20  1  0  0  0
 19 21  1  0  0  0
 21 22  1  0  0  0
 22 23  2  0  0  0
 22 24  1  0  0  0
 24 25  1  0  0  0
M  END
>  <CHROM.0>
73.74605765,-65.73333433,-75.42896917,35.06467251,145.66344720,61.19042792
119.61925723,-137.06988917,-61.18859492,-61.54190337,-105.23762392,-61.41326028
-60.50081437,-106.05614850

>  <CHROM.1>
-138.51207954,-70.82731693,-82.35089078,-70.59170113,100.73242018,47.22166778
18.54616159,28.58402519,67.77284284,2.02619332,-0.03266653,-1.49461356

>  <FORMUL>
      TOL    C16 H14 F3 N1 O3 S1

>  <HET>
 TOL  A 320      24

>  <HETNAM>
     TOL TOLRESTAT

>  <Name>
TOL.pdb

>  <RI>
-1.88925e+09

>  <Rbt.Current_Directory>
/home/malgorzata/Desktop/rDOCK_IFD/Wyniki/1_aldose_reductase

>  <Rbt.Executable>
rbdock ($Id: //depot/dev/client3/rdock/2013.1/src/exe/rbdock.cxx#4 $)

>  <Rbt.Library>
libRbt.so (2013.1, Build901 2013/11/27)

>  <Rbt.Parameter_File>
/home/malgorzata/Desktop/rDock_2013.1_src/data/scripts/soft_docking.prm

>  <Rbt.Receptor>
cavity.prm

>  <SCORE>
-38.798

>  <SCORE.INTER>
-31.4519

>  <SCORE.INTER.CONST>
1

>  <SCORE.INTER.POLAR>
-2.47221

>  <SCORE.INTER.REPUL>
0

>  <SCORE.INTER.ROT>
5

>  <SCORE.INTER.VDW>
-33.4464

>  <SCORE.INTER.norm>
-1.31049

>  <SCORE.INTRA>
-2.08443

>  <SCORE.INTRA.DIHEDRAL>
16.7657

>  <SCORE.INTRA.DIHEDRAL.0>
16.9783

>  <SCORE.INTRA.POLAR>
0

>  <SCORE.INTRA.POLAR.0>
0

>  <SCORE.INTRA.REPUL>
0

>  <SCORE.INTRA.REPUL.0>
0

>  <SCORE.INTRA.VDW>
-5.43758

>  <SCORE.INTRA.VDW.0>
4.87734

>  <SCORE.INTRA.norm>
-0.0868513

>  <SCORE.RESTR>
0.0219814

>  <SCORE.RESTR.CAVITY>
0.0219814

>  <SCORE.RESTR.norm>
0.00091589

>  <SCORE.SYSTEM>
-5.28368

>  <SCORE.SYSTEM.CONST>
0

>  <SCORE.SYSTEM.DIHEDRAL>
18.8151

>  <SCORE.SYSTEM.POLAR>
-3.44414

>  <SCORE.SYSTEM.REPUL>
1.16943

>  <SCORE.SYSTEM.VDW>
-8.82834

>  <SCORE.SYSTEM.norm>
-0.220153

>  <SCORE.heavy>
24

>  <SCORE.norm>
-1.61658

$$$$
TOL.pdb
  rDOCK(R)          3D
libRbt.so/2013.1/901 2013/11/27
 25 26  0  0  0  0  0  0  0  0999 V2000
   17.4281   29.5666   68.7767 C   0  0  0  0  0  0
   16.7790   29.0475   67.7044 F   0  0  0  0  0  0
   17.5887   30.8950   68.5362 F   0  0  0  0  0  0
   16.6145   29.4482   69.8597 F   0  0  0  0  0  0
   18.7757   28.8548   69.0246 C   0  0  0  0  0  0
   19.3205   27.8708   68.1592 C   0  0  0  0  0  0
   18.6613   27.5210   67.0695 O   0  0  0  0  0  0
   19.0566   28.2573   65.9239 C   0  0  0  0  0  0
   20.5610   27.2771   68.4802 C   0  0  0  0  0  0
   21.2551   27.6486   69.6373 C   0  0  0  0  0  0
   20.7163   28.6233   70.5001 C   0  0  0  0  0  0
   21.4270   28.9889   71.6672 C   0  0  0  0  0  0
   20.8899   29.9616   72.5263 C   0  0  0  0  0  0
   19.6638   30.5635   72.2343 C   0  0  0  0  0  0
   18.9642   30.1987   71.0772 C   0  0  0  0  0  0
   19.4807   29.2274   70.1997 C   0  0  0  0  0  0
   22.7574   28.3908   72.0598 C   0  0  0  0  0  0
   24.2021   29.2392   71.7005 S   0  0  0  0  0  0
   22.7905   27.2176   72.6938 N   0  0  0  0  0  0
   21.5436   26.5681   73.0826 C   0  0  0  0  0  0
   24.0515   26.5650   73.0311 C   0  0  0  0  0  0
   23.8875   25.0396   73.1443 C   0  0  0  0  0  0
   24.1015   24.4450   74.1678 O   0  0  0  0  0  0
   23.4835   24.4219   72.0286 O   0  0  0  0  0  0
   22.9696   23.6405   72.0857 H   0  0  0  0  0  0
  1  2  1  0  0  0
  1  3  1  0  0  0
  1  4  1  0  0  0
  1  5  1  0  0  0
  5  6  2  0  0  0
  5 16  1  0  0  0
  6  7  1  0  0  0
  6  9  1  0  0  0
  7  8  1  0  0  0
  9 10  2  0  0  0
 10 11  1  0  0  0
 11 12  2  0  0  0
 11 16  1  0  0  0
 12 13  1  0  0  0
 12 17  1  0  0  0
 13 14  2  0  0  0
 14 15  1  0  0  0
 15 16  2  0  0  0
 17 18  2  0  0  0
 17 19  1  0  0  0
 19 20  1  0  0  0
 19 21  1  0  0  0
 21 22  1  0  0  0
 22 23  2  0  0  0
 22 24  1  0  0  0
 24 25  1  0  0  0
M  END
>  <CHROM.0>
-26.07704027,-36.92704907,113.10583327,150.47039565,73.85836143,-126.07507200
-87.92892251,136.97651391,-61.18859492,-61.54190337,-52.55195740,-61.41326028
-60.50081437,-137.12936000

>  <CHROM.1>
5.68855979,93.34154349,98.39037981,-153.96627913,-118.48253022,-149.70607010
20.65539418,28.20016037,70.54291325,3.07517721,0.74648021,-2.48419699

>  <FORMUL>
      TOL    C16 H14 F3 N1 O3 S1

>  <HET>
 TOL  A 320      24

>  <HETNAM>
     TOL TOLRESTAT

>  <Name>
TOL.pdb

>  <RI>
-1.88925e+09

>  <Rbt.Current_Directory>
/home/malgorzata/Desktop/rDOCK_IFD/Wyniki/1_aldose_reductase

>  <Rbt.Executable>
rbdock ($Id: //depot/dev/client3/rdock/2013.1/src/exe/rbdock.cxx#4 $)

>  <Rbt.Library>
libRbt.so (2013.1, Build901 2013/11/27)

>  <Rbt.Parameter_File>
/home/malgorzata/Desktop/rDock_2013.1_src/data/scripts/soft_docking.prm

>  <Rbt.Receptor>
cavity.prm

>  <SCORE>
-36.0076

>  <SCORE.INTER>
-28.7134

>  <SCORE.INTER.CONST>
1

>  <SCORE.INTER.POLAR>
-2.17101

>  <SCORE.INTER.REPUL>
0.824187

>  <SCORE.INTER.ROT>
5

>  <SCORE.INTER.VDW>
-35.8529

>  <SCORE.INTER.norm>
-1.19639

>  <SCORE.INTRA>
-3.17636

>  <SCORE.INTRA.DIHEDRAL>
10.7023

>  <SCORE.INTRA.DIHEDRAL.0>
16.9783

>  <SCORE.INTRA.POLAR>
0

>  <SCORE.INTRA.POLAR.0>
0

>  <SCORE.INTRA.REPUL>
0

>  <SCORE.INTRA.REPUL.0>
0

>  <SCORE.INTRA.VDW>
-5.31681

>  <SCORE.INTRA.VDW.0>
4.87734

>  <SCORE.INTRA.norm>
-0.132348

>  <SCORE.RESTR>
0.358361

>  <SCORE.RESTR.CAVITY>
0.358361

>  <SCORE.RESTR.norm>
0.0149317

>  <SCORE.SYSTEM>
-4.47621

>  <SCORE.SYSTEM.CONST>
0

>  <SCORE.SYSTEM.DIHEDRAL>
13.9078

>  <SCORE.SYSTEM.POLAR>
-2.90559

>  <SCORE.SYSTEM.REPUL>
1.16943

>  <SCORE.SYSTEM.VDW>
-7.39827

>  <SCORE.SYSTEM.norm>
-0.186509

>  <SCORE.heavy>
24

>  <SCORE.norm>
-1.50032

$$$$
TOL.pdb
  rDOCK(R)          3D
libRbt.so/2013.1/901 2013/11/27
 25 26  0  0  0  0  0  0  0  0999 V2000
   24.0582   26.4534   72.7725 C   0  0  0  0  0  0
   23.6183   25.3166   73.3682 F   0  0  0  0  0  0
   25.0473   26.9544   73.5592 F   0  0  0  0  0  0
   24.6218   26.1146   71.5824 F   0  0  0  0  0  0
   22.9117   27.4669   72.5658 C   0  0  0  0  0  0
   22.7316   28.6291   73.3601 C   0  0  0  0  0  0
   23.5769   28.8878   74.3414 O   0  0  0  0  0  0
   23.0270   28.6396   75.6248 C   0  0  0  0  0  0
   21.6460   29.4908   73.0897 C   0  0  0  0  0  0
   20.7510   29.2115   72.0507 C   0  0  0  0  0  0
   20.9251   28.0575   71.2616 C   0  0  0  0  0  0
   20.0127   27.7858   70.2153 C   0  0  0  0  0  0
   20.1875   26.6358   69.4282 C   0  0  0  0  0  0
   21.2513   25.7650   69.6749 C   0  0  0  0  0  0
   22.1525   26.0386   70.7115 C   0  0  0  0  0  0
   22.0001   27.1844   71.5143 C   0  0  0  0  0  0
   18.8363   28.6715   69.8785 C   0  0  0  0  0  0
   17.5005   28.7424   70.9493 S   0  0  0  0  0  0
   18.8581   29.3980   68.7600 N   0  0  0  0  0  0
   20.0513   29.4016   67.9207 C   0  0  0  0  0  0
   17.7180   30.2141   68.3548 C   0  0  0  0  0  0
   16.5114   29.3455   67.9600 C   0  0  0  0  0  0
   16.5934   28.1521   67.8333 O   0  0  0  0  0  0
   15.3640   30.0078   67.7749 O   0  0  0  0  0  0
   14.6002   29.7667   68.2610 H   0  0  0  0  0  0
  1  2  1  0  0  0
  1  3  1  0  0  0
  1  4  1  0  0  0
  1  5  1  0  0  0
  5  6  2  0  0  0
  5 16  1  0  0  0
  6  7  1  0  0  0
  6  9  1  0  0  0
  7  8  1  0  0  0
  9 10  2  0  0  0
 10 11  1  0  0  0
 11 12  2  0  0  0
 11 16  1  0  0  0
 12 13  1  0  0  0
 12 17  1  0  0  0
 13 14  2  0  0  0
 14 15  1  0  0  0
 15 16  2  0  0  0
 17 18  2  0  0  0
 17 19  1  0  0  0
 19 20  1  0  0  0
 19 21  1  0  0  0
 21 22  1  0  0  0
 22 23  2  0  0  0
 22 24  1  0  0  0
 24 25  1  0  0  0
M  END
>  <CHROM.0>
-35.82744740,31.86379724,85.99597944,179.26492076,-159.18499084,-54.19867924
37.48549078,-136.53879928,-61.18859492,-61.54190337,-129.00557977,-61.41326028
-60.50081437,153.68548326

>  <CHROM.1>
104.57459036,-105.91188499,-70.63388124,-67.85875247,-9.53901107,-123.97613482
20.74879641,28.01936938,71.06718011,-0.31696850,0.59433889,-2.20024341

>  <FORMUL>
      TOL    C16 H14 F3 N1 O3 S1

>  <HET>
 TOL  A 320      24

>  <HETNAM>
     TOL TOLRESTAT

>  <Name>
TOL.pdb

>  <RI>
-1.88925e+09

>  <Rbt.Current_Directory>
/home/malgorzata/Desktop/rDOCK_IFD/Wyniki/1_aldose_reductase

>  <Rbt.Executable>
rbdock ($Id: //depot/dev/client3/rdock/2013.1/src/exe/rbdock.cxx#4 $)

>  <Rbt.Library>
libRbt.so (2013.1, Build901 2013/11/27)

>  <Rbt.Parameter_File>
/home/malgorzata/Desktop/rDock_2013.1_src/data/scripts/soft_docking.prm

>  <Rbt.Receptor>
cavity.prm

>  <SCORE>
-44.029

>  <SCORE.INTER>
-32.4185

>  <SCORE.INTER.CONST>
1

>  <SCORE.INTER.POLAR>
-3.31694

>  <SCORE.INTER.REPUL>
0.0721939

>  <SCORE.INTER.ROT>
5

>  <SCORE.INTER.VDW>
-31.9019

>  <SCORE.INTER.norm>
-1.35077

>  <SCORE.INTRA>
-2.89569

>  <SCORE.INTRA.DIHEDRAL>
19.2239

>  <SCORE.INTRA.DIHEDRAL.0>
16.9783

>  <SCORE.INTRA.POLAR>
0

>  <SCORE.INTRA.POLAR.0>
0

>  <SCORE.INTRA.REPUL>
0

>  <SCORE.INTRA.REPUL.0>
0

>  <SCORE.INTRA.VDW>
-6.74046

>  <SCORE.INTRA.VDW.0>
4.87734

>  <SCORE.INTRA.norm>
-0.120654

>  <SCORE.RESTR>
0

>  <SCORE.RESTR.CAVITY>
0

>  <SCORE.RESTR.norm>
0

>  <SCORE.SYSTEM>
-8.71474

>  <SCORE.SYSTEM.CONST>
0

>  <SCORE.SYSTEM.DIHEDRAL>
15.3082

>  <SCORE.SYSTEM.POLAR>
-4.05159

>  <SCORE.SYSTEM.REPUL>
1.16943

>  <SCORE.SYSTEM.VDW>
-8.44058

>  <SCORE.SYSTEM.norm>
-0.363114

>  <SCORE.heavy>
24

>  <SCORE.norm>
-1.83454

$$$$
TOL.pdb
  rDOCK(R)          3D
libRbt.so/2013.1/901 2013/11/27
 25 26  0  0  0  0  0  0  0  0999 V2000
   23.1436   28.9996   73.6410 C   0  0  0  0  0  0
   22.2669   29.2641   74.6421 F   0  0  0  0  0  0
   23.8242   30.1510   73.3975 F   0  0  0  0  0  0
   24.0431   28.0883   74.0984 F   0  0  0  0  0  0
   22.4245   28.4730   72.3802 C   0  0  0  0  0  0
   22.7850   27.2772   71.7062 C   0  0  0  0  0  0
   23.7899   26.5492   72.1586 O   0  0  0  0  0  0
   23.3690   25.3253   72.7381 C   0  0  0  0  0  0
   22.0634   26.8859   70.5572 C   0  0  0  0  0  0
   21.0010   27.6615   70.0795 C   0  0  0  0  0  0
   20.6417   28.8505   70.7445 C   0  0  0  0  0  0
   19.5669   29.6264   70.2507 C   0  0  0  0  0  0
   19.2084   30.8110   70.9147 C   0  0  0  0  0  0
   19.9064   31.2229   72.0523 C   0  0  0  0  0  0
   20.9693   30.4510   72.5377 C   0  0  0  0  0  0
   21.3481   29.2598   71.8913 C   0  0  0  0  0  0
   18.7583   29.2566   69.0295 C   0  0  0  0  0  0
   19.5551   29.0176   67.5315 S   0  0  0  0  0  0
   17.4371   29.1064   69.1354 N   0  0  0  0  0  0
   16.7978   29.2102   70.4425 C   0  0  0  0  0  0
   16.6036   28.8193   67.9722 C   0  0  0  0  0  0
   16.0882   30.1097   67.3123 C   0  0  0  0  0  0
   16.8139   31.0345   67.0571 O   0  0  0  0  0  0
   14.7797   30.1291   67.0353 O   0  0  0  0  0  0
   14.2849   29.3337   67.0545 H   0  0  0  0  0  0
  1  2  1  0  0  0
  1  3  1  0  0  0
  1  4  1  0  0  0
  1  5  1  0  0  0
  5  6  2  0  0  0
  5 16  1  0  0  0
  6  7  1  0  0  0
  6  9  1  0  0  0
  7  8  1  0  0  0
  9 10  2  0  0  0
 10 11  1  0  0  0
 11 12  2  0  0  0
 11 16  1  0  0  0
 12 13  1  0  0  0
 12 17  1  0  0  0
 13 14  2  0  0  0
 14 15  1  0  0  0
 15 16  2  0  0  0
 17 18  2  0  0  0
 17 19  1  0  0  0
 19 20  1  0  0  0
 19 21  1  0  0  0
 21 22  1  0  0  0
 22 23  2  0  0  0
 22 24  1  0  0  0
 24 25  1  0  0  0
M  END
>  <CHROM.0>
-35.94556719,-33.97346128,77.54209455,-3.56463664,80.16645524,94.66271502
85.75232237,-152.52199946,-61.18859492,-61.54190337,-40.79724154,-61.41326028
-60.50081437,135.15788373

>  <CHROM.1>
-127.85116090,109.32022049,-56.71879982,-90.73911664,48.27458378,-14.23018895
20.32385110,28.98160159,70.72553398,0.30150699,-0.66231790,0.76792662

>  <FORMUL>
      TOL    C16 H14 F3 N1 O3 S1

>  <HET>
 TOL  A 320      24

>  <HETNAM>
     TOL TOLRESTAT

>  <Name>
TOL.pdb

>  <RI>
-1.88925e+09

>  <Rbt.Current_Directory>
/home/malgorzata/Desktop/rDOCK_IFD/Wyniki/1_aldose_reductase

>  <Rbt.Executable>
rbdock ($Id: //depot/dev/client3/rdock/2013.1/src/exe/rbdock.cxx#4 $)

>  <Rbt.Library>
libRbt.so (2013.1, Build901 2013/11/27)

>  <Rbt.Parameter_File>
/home/malgorzata/Desktop/rDock_2013.1_src/data/scripts/soft_docking.prm

>  <Rbt.Receptor>
cavity.prm

>  <SCORE>
-48.6086

>  <SCORE.INTER>
-39.5317

>  <SCORE.INTER.CONST>
1

>  <SCORE.INTER.POLAR>
-2.78348

>  <SCORE.INTER.REPUL>
0

>  <SCORE.INTER.ROT>
5

>  <SCORE.INTER.VDW>
-40.4679

>  <SCORE.INTER.norm>
-1.64715

>  <SCORE.INTRA>
-4.79464

>  <SCORE.INTRA.DIHEDRAL>
2.14572

>  <SCORE.INTRA.DIHEDRAL.0>
16.9783

>  <SCORE.INTRA.POLAR>
0

>  <SCORE.INTRA.POLAR.0>
0

>  <SCORE.INTRA.REPUL>
0

>  <SCORE.INTRA.REPUL.0>
0

>  <SCORE.INTRA.VDW>
-5.22378

>  <SCORE.INTRA.VDW.0>
4.87734

>  <SCORE.INTRA.norm>
-0.199777

>  <SCORE.RESTR>
0

>  <SCORE.RESTR.CAVITY>
0

>  <SCORE.RESTR.norm>
0

>  <SCORE.SYSTEM>
-4.28229

>  <SCORE.SYSTEM.CONST>
0

>  <SCORE.SYSTEM.DIHEDRAL>
14.1133

>  <SCORE.SYSTEM.POLAR>
-2.96106

>  <SCORE.SYSTEM.REPUL>
1.16943

>  <SCORE.SYSTEM.VDW>
-7.11851

>  <SCORE.SYSTEM.norm>
-0.178429

>  <SCORE.heavy>
24

>  <SCORE.norm>
-2.02536

$$$$
TOL.pdb
  rDOCK(R)          3D
libRbt.so/2013.1/901 2013/11/27
 25 26  0  0  0  0  0  0  0  0999 V2000
   24.3524   26.6505   72.5208 C   0  0  0  0  0  0
   25.5037   27.2581   72.9030 F   0  0  0  0  0  0
   24.6482   25.8937   71.4308 F   0  0  0  0  0  0
   23.9756   25.7998   73.5123 F   0  0  0  0  0  0
   23.2375   27.6779   72.2284 C   0  0  0  0  0  0
   23.1513   28.9495   72.8527 C   0  0  0  0  0  0
   24.0625   29.3055   73.7400 O   0  0  0  0  0  0
   23.7285   28.9163   75.0621 C   0  0  0  0  0  0
   22.0872   29.8149   72.5164 C   0  0  0  0  0  0
   21.1222   29.4328   71.5776 C   0  0  0  0  0  0
   21.2030   28.1703   70.9576 C   0  0  0  0  0  0
   20.2205   27.7955   70.0115 C   0  0  0  0  0  0
   20.3023   26.5372   69.3929 C   0  0  0  0  0  0
   21.3429   25.6605   69.7083 C   0  0  0  0  0  0
   22.3137   26.0364   70.6451 C   0  0  0  0  0  0
   22.2550   27.2916   71.2786 C   0  0  0  0  0  0
   19.0630   28.6794   69.6108 C   0  0  0  0  0  0
   19.1358   29.5463   68.1345 S   0  0  0  0  0  0
   17.9932   28.7629   70.4032 N   0  0  0  0  0  0
   17.9107   27.9330   71.6000 C   0  0  0  0  0  0
   16.8806   29.6561   70.0959 C   0  0  0  0  0  0
   15.7559   28.9225   69.3453 C   0  0  0  0  0  0
   15.5251   27.7545   69.5169 O   0  0  0  0  0  0
   15.0484   29.6746   68.4950 O   0  0  0  0  0  0
   14.1467   29.4771   68.3336 H   0  0  0  0  0  0
  1  2  1  0  0  0
  1  3  1  0  0  0
  1  4  1  0  0  0
  1  5  1  0  0  0
  5  6  2  0  0  0
  5 16  1  0  0  0
  6  7  1  0  0  0
  6  9  1  0  0  0
  7  8  1  0  0  0
  9 10  2  0  0  0
 10 11  1  0  0  0
 11 12  2  0  0  0
 11 16  1  0  0  0
 12 13  1  0  0  0
 12 17  1  0  0  0
 13 14  2  0  0  0
 14 15  1  0  0  0
 15 16  2  0  0  0
 17 18  2  0  0  0
 17 19  1  0  0  0
 19 20  1  0  0  0
 19 21  1  0  0  0
 21 22  1  0  0  0
 22 23  2  0  0  0
 22 24  1  0  0  0
 24 25  1  0  0  0
M  END
>  <CHROM.0>
-53.90538667,51.30013043,-16.27155840,89.02565541,33.08174859,-58.39827898
-81.10647266,-114.50347332,-61.18859492,-61.54190337,-131.84825259,-61.41326028
-60.50081437,80.78991106

>  <CHROM.1>
-28.52173433,-88.95827596,101.12669085,95.32975067,30.90833944,-149.43850753
20.85639898,28.04045007,71.05926118,-0.14661258,0.48157350,-2.42649721

>  <FORMUL>
      TOL    C16 H14 F3 N1 O3 S1

>  <HET>
 TOL  A 320      24

>  <HETNAM>
     TOL TOLRESTAT

>  <Name>
TOL.pdb

>  <RI>
-1.88925e+09

>  <Rbt.Current_Directory>
/home/malgorzata/Desktop/rDOCK_IFD/Wyniki/1_aldose_reductase

>  <Rbt.Executable>
rbdock ($Id: //depot/dev/client3/rdock/2013.1/src/exe/rbdock.cxx#4 $)

>  <Rbt.Library>
libRbt.so (2013.1, Build901 2013/11/27)

>  <Rbt.Parameter_File>
/home/malgorzata/Desktop/rDock_2013.1_src/data/scripts/soft_docking.prm

>  <Rbt.Receptor>
cavity.prm

>  <SCORE>
-46.3792

>  <SCORE.INTER>
-36.766

>  <SCORE.INTER.CONST>
1

>  <SCORE.INTER.POLAR>
-3.66992

>  <SCORE.INTER.REPUL>
0

>  <SCORE.INTER.ROT>
5

>  <SCORE.INTER.VDW>
-34.6883

>  <SCORE.INTER.norm>
-1.53192

>  <SCORE.INTRA>
-4.06923

>  <SCORE.INTRA.DIHEDRAL>
10.6111

>  <SCORE.INTRA.DIHEDRAL.0>
16.9783

>  <SCORE.INTRA.POLAR>
0

>  <SCORE.INTRA.POLAR.0>
0

>  <SCORE.INTRA.REPUL>
0

>  <SCORE.INTRA.REPUL.0>
0

>  <SCORE.INTRA.VDW>
-6.19144

>  <SCORE.INTRA.VDW.0>
4.87734

>  <SCORE.INTRA.norm>
-0.169551

>  <SCORE.RESTR>
0.374391

>  <SCORE.RESTR.CAVITY>
0.374391

>  <SCORE.RESTR.norm>
0.0155996

>  <SCORE.SYSTEM>
-5.91829

>  <SCORE.SYSTEM.CONST>
0

>  <SCORE.SYSTEM.DIHEDRAL>
19.3318

>  <SCORE.SYSTEM.POLAR>
-3.82918

>  <SCORE.SYSTEM.REPUL>
1.16943

>  <SCORE.SYSTEM.VDW>
-8.41216

>  <SCORE.SYSTEM.norm>
-0.246596

>  <SCORE.heavy>
24

>  <SCORE.norm>
-1.93246

$$$$
TOL.pdb
  rDOCK(R)          3D
libRbt.so/2013.1/901 2013/11/27
 25 26  0  0  0  0  0  0  0  0999 V2000
   16.7783   29.2569   65.6775 C   0  0  0  0  0  0
   15.9334   28.2017   65.7940 F   0  0  0  0  0  0
   17.0214   29.4237   64.3504 F   0  0  0  0  0  0
   16.1262   30.3685   66.1111 F   0  0  0  0  0  0
   18.0775   29.0362   66.4822 C   0  0  0  0  0  0
   19.3667   28.9547   65.8946 C   0  0  0  0  0  0
   19.4971   29.0706   64.5854 O   0  0  0  0  0  0
   19.5947   27.8187   63.9264 C   0  0  0  0  0  0
   20.4923   28.7467   66.7216 C   0  0  0  0  0  0
   20.3495   28.6216   68.1081 C   0  0  0  0  0  0
   19.0710   28.6996   68.6949 C   0  0  0  0  0  0
   18.9400   28.5701   70.0974 C   0  0  0  0  0  0
   17.6653   28.6491   70.6818 C   0  0  0  0  0  0
   16.5345   28.8521   69.8875 C   0  0  0  0  0  0
   16.6695   28.9804   68.4994 C   0  0  0  0  0  0
   17.9353   28.9057   67.8891 C   0  0  0  0  0  0
   20.1069   28.3495   71.0310 C   0  0  0  0  0  0
   20.7554   29.6774   71.8983 S   0  0  0  0  0  0
   20.6082   27.1223   71.1798 N   0  0  0  0  0  0
   19.9703   25.9926   70.5128 C   0  0  0  0  0  0
   21.7783   26.8694   72.0146 C   0  0  0  0  0  0
   23.0789   26.9098   71.1941 C   0  0  0  0  0  0
   23.5095   27.9295   70.7231 O   0  0  0  0  0  0
   23.7011   25.7348   71.0471 O   0  0  0  0  0  0
   23.2166   24.9360   71.1189 H   0  0  0  0  0  0
  1  2  1  0  0  0
  1  3  1  0  0  0
  1  4  1  0  0  0
  1  5  1  0  0  0
  5  6  2  0  0  0
  5 16  1  0  0  0
  6  7  1  0  0  0
  6  9  1  0  0  0
  7  8  1  0  0  0
  9 10  2  0  0  0
 10 11  1  0  0  0
 11 12  2  0  0  0
 11 16  1  0  0  0
 12 13  1  0  0  0
 12 17  1  0  0  0
 13 14  2  0  0  0
 14 15  1  0  0  0
 15 16  2  0  0  0
 17 18  2  0  0  0
 17 19  1  0  0  0
 19 20  1  0  0  0
 19 21  1  0  0  0
 21 22  1  0  0  0
 22 23  2  0  0  0
 22 24  1  0  0  0
 24 25  1  0  0  0
M  END
>  <CHROM.0>
-14.56173828,42.30764134,178.01159670,174.82643567,-153.76241731,-41.39158090
-158.71469107,-124.46113388,-61.18859492,-61.54190337,-158.26222535,-61.41326028
-60.50081437,69.86105788

>  <CHROM.1>
117.08039725,-98.09114225,99.77747024,-92.96478387,69.10475350,23.99870427
19.34668435,28.42430477,68.51038769,2.26406815,0.35304428,-1.57743294

>  <FORMUL>
      TOL    C16 H14 F3 N1 O3 S1

>  <HET>
 TOL  A 320      24

>  <HETNAM>
     TOL TOLRESTAT

>  <Name>
TOL.pdb

>  <RI>
-1.88925e+09

>  <Rbt.Current_Directory>
/home/malgorzata/Desktop/rDOCK_IFD/Wyniki/1_aldose_reductase

>  <Rbt.Executable>
rbdock ($Id: //depot/dev/client3/rdock/2013.1/src/exe/rbdock.cxx#4 $)

>  <Rbt.Library>
libRbt.so (2013.1, Build901 2013/11/27)

>  <Rbt.Parameter_File>
/home/malgorzata/Desktop/rDock_2013.1_src/data/scripts/soft_docking.prm

>  <Rbt.Receptor>
cavity.prm

>  <SCORE>
-49.2345

>  <SCORE.INTER>
-33.3318

>  <SCORE.INTER.CONST>
1

>  <SCORE.INTER.POLAR>
-2.28988

>  <SCORE.INTER.REPUL>
0

>  <SCORE.INTER.ROT>
5

>  <SCORE.INTER.VDW>
-35.9462

>  <SCORE.INTER.norm>
-1.38882

>  <SCORE.INTRA>
-5.92276

>  <SCORE.INTRA.DIHEDRAL>
8.36874

>  <SCORE.INTRA.DIHEDRAL.0>
16.9783

>  <SCORE.INTRA.POLAR>
0

>  <SCORE.INTRA.POLAR.0>
0

>  <SCORE.INTRA.REPUL>
0

>  <SCORE.INTRA.REPUL.0>
0

>  <SCORE.INTRA.VDW>
-7.59651

>  <SCORE.INTRA.VDW.0>
4.87734

>  <SCORE.INTRA.norm>
-0.246782

>  <SCORE.RESTR>
0

>  <SCORE.RESTR.CAVITY>
0

>  <SCORE.RESTR.norm>
0

>  <SCORE.SYSTEM>
-9.97992

>  <SCORE.SYSTEM.CONST>
0

>  <SCORE.SYSTEM.DIHEDRAL>
10.0191

>  <SCORE.SYSTEM.POLAR>
-3.65873

>  <SCORE.SYSTEM.REPUL>
1.16943

>  <SCORE.SYSTEM.VDW>
-8.39696

>  <SCORE.SYSTEM.norm>
-0.41583

>  <SCORE.heavy>
24

>  <SCORE.norm>
-2.05144

$$$$
TOL.pdb
  rDOCK(R)          3D
libRbt.so/2013.1/901 2013/11/27
 25 26  0  0  0  0  0  0  0  0999 V2000
   22.8093   28.7811   72.0563 C   0  0  0  0  0  0
   23.9765   28.0930   71.9861 F   0  0  0  0  0  0
   22.4858   28.8768   73.3733 F   0  0  0  0  0  0
   23.0363   30.0431   71.6039 F   0  0  0  0  0  0
   21.6959   28.0971   71.2337 C   0  0  0  0  0  0
   21.7962   26.7830   70.7073 C   0  0  0  0  0  0
   22.8929   26.0771   70.9158 O   0  0  0  0  0  0
   23.4900   25.6157   69.7151 C   0  0  0  0  0  0
   20.7198   26.2512   69.9639 C   0  0  0  0  0  0
   19.5606   27.0035   69.7430 C   0  0  0  0  0  0
   19.4583   28.3094   70.2618 C   0  0  0  0  0  0
   18.2819   29.0599   70.0303 C   0  0  0  0  0  0
   18.1800   30.3613   70.5488 C   0  0  0  0  0  0
   19.2303   30.9130   71.2859 C   0  0  0  0  0  0
   20.3928   30.1656   71.5131 C   0  0  0  0  0  0
   20.5197   28.8594   71.0051 C   0  0  0  0  0  0
   17.0989   28.5428   69.2460 C   0  0  0  0  0  0
   15.7003   28.0121   70.0816 S   0  0  0  0  0  0
   17.1520   28.5194   67.9133 N   0  0  0  0  0  0
   18.3107   29.0759   67.2238 C   0  0  0  0  0  0
   16.0647   27.9643   67.1135 C   0  0  0  0  0  0
   14.9539   29.0005   66.8707 C   0  0  0  0  0  0
   14.1118   28.8527   66.0247 O   0  0  0  0  0  0
   14.9853   30.0728   67.6699 O   0  0  0  0  0  0
   14.2169   30.3282   68.1415 H   0  0  0  0  0  0
  1  2  1  0  0  0
  1  3  1  0  0  0
  1  4  1  0  0  0
  1  5  1  0  0  0
  5  6  2  0  0  0
  5 16  1  0  0  0
  6  7  1  0  0  0
  6  9  1  0  0  0
  7  8  1  0  0  0
  9 10  2  0  0  0
 10 11  1  0  0  0
 11 12  2  0  0  0
 11 16  1  0  0  0
 12 13  1  0  0  0
 12 17  1  0  0  0
 13 14  2  0  0  0
 14 15  1  0  0  0
 15 16  2  0  0  0
 17 18  2  0  0  0
 17 19  1  0  0  0
 19 20  1  0  0  0
 19 21  1  0  0  0
 21 22  1  0  0  0
 22 23  2  0  0  0
 22 24  1  0  0  0
 24 25  1  0  0  0
M  END
>  <CHROM.0>
160.82751710,86.36814395,-50.92055022,146.80866650,-152.80020692,162.12127062
-10.68502143,-121.79541166,-61.18859492,-61.54190337,-46.07477622,-61.41326028
-60.50081437,-22.48255482

>  <CHROM.1>
12.30305304,-124.40243579,102.90289940,84.48770789,164.39698688,-128.01967359
19.37030755,28.46306636,69.96579741,0.19731920,-0.45776769,0.64220909

>  <FORMUL>
      TOL    C16 H14 F3 N1 O3 S1

>  <HET>
 TOL  A 320      24

>  <HETNAM>
     TOL TOLRESTAT

>  <Name>
TOL.pdb

>  <RI>
-1.88925e+09

>  <Rbt.Current_Directory>
/home/malgorzata/Desktop/rDOCK_IFD/Wyniki/1_aldose_reductase

>  <Rbt.Executable>
rbdock ($Id: //depot/dev/client3/rdock/2013.1/src/exe/rbdock.cxx#4 $)

>  <Rbt.Library>
libRbt.so (2013.1, Build901 2013/11/27)

>  <Rbt.Parameter_File>
/home/malgorzata/Desktop/rDock_2013.1_src/data/scripts/soft_docking.prm

>  <Rbt.Receptor>
cavity.prm

>  <SCORE>
-40.1866

>  <SCORE.INTER>
-33.42

>  <SCORE.INTER.CONST>
1

>  <SCORE.INTER.POLAR>
-3.71257

>  <SCORE.INTER.REPUL>
0

>  <SCORE.INTER.ROT>
5

>  <SCORE.INTER.VDW>
-31.1973

>  <SCORE.INTER.norm>
-1.3925

>  <SCORE.INTRA>
-2.61954

>  <SCORE.INTRA.DIHEDRAL>
17.3034

>  <SCORE.INTRA.DIHEDRAL.0>
16.9783

>  <SCORE.INTRA.POLAR>
0

>  <SCORE.INTRA.POLAR.0>
0

>  <SCORE.INTRA.REPUL>
0

>  <SCORE.INTRA.REPUL.0>
0

>  <SCORE.INTRA.VDW>
-6.08023

>  <SCORE.INTRA.VDW.0>
4.87734

>  <SCORE.INTRA.norm>
-0.109147

>  <SCORE.RESTR>
0

>  <SCORE.RESTR.CAVITY>
0

>  <SCORE.RESTR.norm>
0

>  <SCORE.SYSTEM>
-4.14706

>  <SCORE.SYSTEM.CONST>
0

>  <SCORE.SYSTEM.DIHEDRAL>
11.7392

>  <SCORE.SYSTEM.POLAR>
-2.98004

>  <SCORE.SYSTEM.REPUL>
1.17755

>  <SCORE.SYSTEM.VDW>
-5.77228

>  <SCORE.SYSTEM.norm>
-0.172794

>  <SCORE.heavy>
24

>  <SCORE.norm>
-1.67444

$$$$
TOL.pdb
  rDOCK(R)          3D
libRbt.so/2013.1/901 2013/11/27
 25 26  0  0  0  0  0  0  0  0999 V2000
   19.2413   29.7355   72.6600 C   0  0  0  0  0  0
   19.4163   31.0681   72.4743 F   0  0  0  0  0  0
   20.0740   29.3646   73.6685 F   0  0  0  0  0  0
   17.9682   29.5341   73.0931 F   0  0  0  0  0  0
   19.5101   28.9410   71.3636 C   0  0  0  0  0  0
   20.4271   27.8616   71.2742 C   0  0  0  0  0  0
   21.1060   27.4899   72.3444 O   0  0  0  0  0  0
   22.3790   28.1083   72.4340 C   0  0  0  0  0  0
   20.6019   27.2026   70.0375 C   0  0  0  0  0  0
   19.8826   27.6014   68.9051 C   0  0  0  0  0  0
   18.9732   28.6741   68.9894 C   0  0  0  0  0  0
   18.2534   29.0683   67.8373 C   0  0  0  0  0  0
   17.3460   30.1370   67.9223 C   0  0  0  0  0  0
   17.1550   30.8079   69.1323 C   0  0  0  0  0  0
   17.8695   30.4135   70.2705 C   0  0  0  0  0  0
   18.7840   29.3455   70.2122 C   0  0  0  0  0  0
   18.3969   28.3998   66.4903 C   0  0  0  0  0  0
   17.2260   27.2538   65.9888 S   0  0  0  0  0  0
   19.4244   28.7204   65.7023 N   0  0  0  0  0  0
   20.3466   29.7758   66.1066 C   0  0  0  0  0  0
   19.6463   28.0523   64.4239 C   0  0  0  0  0  0
   18.8285   28.7032   63.2952 C   0  0  0  0  0  0
   18.5067   28.1001   62.3054 O   0  0  0  0  0  0
   18.4940   29.9831   63.4940 O   0  0  0  0  0  0
   18.1477   30.4919   62.7875 H   0  0  0  0  0  0
  1  2  1  0  0  0
  1  3  1  0  0  0
  1  4  1  0  0  0
  1  5  1  0  0  0
  5  6  2  0  0  0
  5 16  1  0  0  0
  6  7  1  0  0  0
  6  9  1  0  0  0
  7  8  1  0  0  0
  9 10  2  0  0  0
 10 11  1  0  0  0
 11 12  2  0  0  0
 11 16  1  0  0  0
 12 13  1  0  0  0
 12 17  1  0  0  0
 13 14  2  0  0  0
 14 15  1  0  0  0
 15 16  2  0  0  0
 17 18  2  0  0  0
 17 19  1  0  0  0
 19 20  1  0  0  0
 19 21  1  0  0  0
 21 22  1  0  0  0
 22 23  2  0  0  0
 22 24  1  0  0  0
 24 25  1  0  0  0
M  END
>  <CHROM.0>
-0.89960469,48.51338421,-87.64308217,153.15722727,-47.90724229,-72.98354477
114.94982333,-141.21888225,-61.18859492,-61.54190337,-163.01108137,-61.41326028
-60.50081437,-176.49758393

>  <CHROM.1>
125.64823484,-93.67892803,100.08498469,85.10141100,-155.09280830,167.93118809
19.08898150,28.88796632,68.73045692,1.36514241,-0.67749215,1.36631134

>  <FORMUL>
      TOL    C16 H14 F3 N1 O3 S1

>  <HET>
 TOL  A 320      24

>  <HETNAM>
     TOL TOLRESTAT

>  <Name>
TOL.pdb

>  <RI>
-1.88925e+09

>  <Rbt.Current_Directory>
/home/malgorzata/Desktop/rDOCK_IFD/Wyniki/1_aldose_reductase

>  <Rbt.Executable>
rbdock ($Id: //depot/dev/client3/rdock/2013.1/src/exe/rbdock.cxx#4 $)

>  <Rbt.Library>
libRbt.so (2013.1, Build901 2013/11/27)

>  <Rbt.Parameter_File>
/home/malgorzata/Desktop/rDock_2013.1_src/data/scripts/soft_docking.prm

>  <Rbt.Receptor>
cavity.prm

>  <SCORE>
-47.3916

>  <SCORE.INTER>
-25.0356

>  <SCORE.INTER.CONST>
1

>  <SCORE.INTER.POLAR>
-0.283154

>  <SCORE.INTER.REPUL>
0

>  <SCORE.INTER.ROT>
5

>  <SCORE.INTER.VDW>
-34.4729

>  <SCORE.INTER.norm>
-1.04315

>  <SCORE.INTRA>
-6.27719

>  <SCORE.INTRA.DIHEDRAL>
5.79159

>  <SCORE.INTRA.DIHEDRAL.0>
16.9783

>  <SCORE.INTRA.POLAR>
0

>  <SCORE.INTRA.POLAR.0>
0

>  <SCORE.INTRA.REPUL>
0

>  <SCORE.INTRA.REPUL.0>
0

>  <SCORE.INTRA.VDW>
-7.43551

>  <SCORE.INTRA.VDW.0>
4.87734

>  <SCORE.INTRA.norm>
-0.261549

>  <SCORE.RESTR>
0.100394

>  <SCORE.RESTR.CAVITY>
0.100394

>  <SCORE.RESTR.norm>
0.00418308

>  <SCORE.SYSTEM>
-16.1792

>  <SCORE.SYSTEM.CONST>
0

>  <SCORE.SYSTEM.DIHEDRAL>
5.96392

>  <SCORE.SYSTEM.POLAR>
-4.86133

>  <SCORE.SYSTEM.REPUL>
1.16943

>  <SCORE.SYSTEM.VDW>
-8.47983

>  <SCORE.SYSTEM.norm>
-0.674134

>  <SCORE.heavy>
24

>  <SCORE.norm>
-1.97465

$$$$
TOL.pdb
  rDOCK(R)          3D
libRbt.so/2013.1/901 2013/11/27
 25 26  0  0  0  0  0  0  0  0999 V2000
   15.7986   30.4554   65.6146 C   0  0  0  0  0  0
   15.6636   30.5134   64.2659 F   0  0  0  0  0  0
   15.6255   31.7196   66.0837 F   0  0  0  0  0  0
   14.7817   29.6994   66.1077 F   0  0  0  0  0  0
   17.1661   29.8668   66.0241 C   0  0  0  0  0  0
   18.1629   29.4651   65.0972 C   0  0  0  0  0  0
   17.9391   29.5890   63.8015 O   0  0  0  0  0  0
   18.2734   30.8739   63.3031 C   0  0  0  0  0  0
   19.3804   28.9343   65.5770 C   0  0  0  0  0  0
   19.6126   28.8021   66.9507 C   0  0  0  0  0  0
   18.6244   29.1975   67.8738 C   0  0  0  0  0  0
   18.8709   29.0573   69.2597 C   0  0  0  0  0  0
   17.8858   29.4529   70.1795 C   0  0  0  0  0  0
   16.6716   29.9790   69.7326 C   0  0  0  0  0  0
   16.4326   30.1165   68.3595 C   0  0  0  0  0  0
   17.4032   29.7284   67.4174 C   0  0  0  0  0  0
   20.1535   28.4995   69.8304 C   0  0  0  0  0  0
   20.2481   26.8339   70.2211 S   0  0  0  0  0  0
   21.2003   29.3067   70.0093 N   0  0  0  0  0  0
   21.1287   30.6956   69.5693 C   0  0  0  0  0  0
   22.4369   28.8321   70.6222 C   0  0  0  0  0  0
   22.2243   28.4357   72.0933 C   0  0  0  0  0  0
   22.1658   29.2509   72.9759 O   0  0  0  0  0  0
   22.1016   27.1234   72.3217 O   0  0  0  0  0  0
   22.3080   26.7736   73.1660 H   0  0  0  0  0  0
  1  2  1  0  0  0
  1  3  1  0  0  0
  1  4  1  0  0  0
  1  5  1  0  0  0
  5  6  2  0  0  0
  5 16  1  0  0  0
  6  7  1  0  0  0
  6  9  1  0  0  0
  7  8  1  0  0  0
  9 10  2  0  0  0
 10 11  1  0  0  0
 11 12  2  0  0  0
 11 16  1  0  0  0
 12 13  1  0  0  0
 12 17  1  0  0  0
 13 14  2  0  0  0
 14 15  1  0  0  0
 15 16  2  0  0  0
 17 18  2  0  0  0
 17 19  1  0  0  0
 19 20  1  0  0  0
 19 21  1  0  0  0
 21 22  1  0  0  0
 22 23  2  0  0  0
 22 24  1  0  0  0
 24 25  1  0  0  0
M  END
>  <CHROM.0>
24.69890394,-60.36648349,-119.72070432,-161.97085590,175.29018111,-55.74948493
80.62055066,-115.82042849,-61.18859492,-61.54190337,-9.25553972,-61.41326028
-60.50081437,94.98000519

>  <CHROM.1>
1.22341831,86.10292806,-94.47017333,-65.42000527,-79.00361669,155.71379251
18.74987103,29.34499284,68.09382629,2.25146565,0.27576480,-1.47244622

>  <FORMUL>
      TOL    C16 H14 F3 N1 O3 S1

>  <HET>
 TOL  A 320      24

>  <HETNAM>
     TOL TOLRESTAT

>  <Name>
TOL.pdb

>  <RI>
-1.88925e+09

>  <Rbt.Current_Directory>
/home/malgorzata/Desktop/rDOCK_IFD/Wyniki/1_aldose_reductase

>  <Rbt.Executable>
rbdock ($Id: //depot/dev/client3/rdock/2013.1/src/exe/rbdock.cxx#4 $)

>  <Rbt.Library>
libRbt.so (2013.1, Build901 2013/11/27)

>  <Rbt.Parameter_File>
/home/malgorzata/Desktop/rDock_2013.1_src/data/scripts/soft_docking.prm

>  <Rbt.Receptor>
cavity.prm

>  <SCORE>
-36.6409

>  <SCORE.INTER>
-25.7076

>  <SCORE.INTER.CONST>
1

>  <SCORE.INTER.POLAR>
-0.988465

>  <SCORE.INTER.REPUL>
0

>  <SCORE.INTER.ROT>
5

>  <SCORE.INTER.VDW>
-32.7468

>  <SCORE.INTER.norm>
-1.07115

>  <SCORE.INTRA>
-4.93395

>  <SCORE.INTRA.DIHEDRAL>
8.92223

>  <SCORE.INTRA.DIHEDRAL.0>
16.9783

>  <SCORE.INTRA.POLAR>
0

>  <SCORE.INTRA.POLAR.0>
0

>  <SCORE.INTRA.REPUL>
0

>  <SCORE.INTRA.REPUL.0>
0

>  <SCORE.INTRA.VDW>
-6.7184

>  <SCORE.INTRA.VDW.0>
4.87734

>  <SCORE.INTRA.norm>
-0.205581

>  <SCORE.RESTR>
0.260519

>  <SCORE.RESTR.CAVITY>
0.260519

>  <SCORE.RESTR.norm>
0.010855

>  <SCORE.SYSTEM>
-6.25984

>  <SCORE.SYSTEM.CONST>
0

>  <SCORE.SYSTEM.DIHEDRAL>
10.3284

>  <SCORE.SYSTEM.POLAR>
-2.69329

>  <SCORE.SYSTEM.REPUL>
1.16943

>  <SCORE.SYSTEM.VDW>
-8.11402

>  <SCORE.SYSTEM.norm>
-0.260827

>  <SCORE.heavy>
24

>  <SCORE.norm>
-1.5267

$$$$
