U05.pdb
  rDOCK(R)          3D
libRbt.so/2013.1/901 2013/11/27
 22 24  0  0  0  0  0  0  0  0999 V2000
   -4.0457  -34.6798   21.1499 N   0  0  0  0  0  0
   -2.7075  -34.9410   21.3512 C   0  0  0  0  0  0
   -2.0226  -34.4767   22.4905 C   0  0  0  0  0  0
   -2.7547  -33.7154   23.4764 C   0  0  0  0  0  0
   -4.1141  -33.4732   23.2677 C   0  0  0  0  0  0
   -4.9013  -32.6947   24.3196 C   0  0  0  0  0  0
   -4.2886  -31.8275   24.9409 O   0  0  0  0  0  0
   -6.2027  -32.9649   24.6105 N   0  0  0  0  0  0
   -6.8995  -32.0673   25.5765 C   0  0  0  0  0  0
   -7.0801  -33.9984   24.0359 C   0  0  0  0  0  0
   -8.0518  -34.6421   24.8258 C   0  0  0  0  0  0
   -8.8516  -35.6906   24.2793 C   0  0  0  0  0  0
   -8.6834  -36.0948   22.9476 C   0  0  0  0  0  0
   -9.5096  -37.2462   22.3486 N   0  0  0  0  0  0
   -9.9770  -37.1329   21.2142 O   0  0  0  0  0  0
   -9.6861  -38.2120   23.0457 O   0  0  0  0  0  0
   -7.7321  -35.4303   22.1712 C   0  0  0  0  0  0
   -6.9515  -34.3854   22.7123 C   0  0  0  0  0  0
   -6.0859  -33.6244   21.9296 N   0  0  0  0  0  0
   -6.6207  -33.1197   20.5624 C   0  0  0  0  0  0
   -6.9640  -34.1750   19.5968 C   0  0  0  0  0  0
   -4.7238  -33.9575   22.0921 C   0  0  0  0  0  0
  1  2  2  0  0  0
  1 22  1  0  0  0
  2  3  1  0  0  0
  3  4  2  0  0  0
  4  5  1  0  0  0
  5  6  1  0  0  0
  5 22  2  0  0  0
  6  7  2  0  0  0
  6  8  1  0  0  0
  8  9  1  0  0  0
  8 10  1  0  0  0
 10 11  2  0  0  0
 10 18  1  0  0  0
 11 12  1  0  0  0
 12 13  2  0  0  0
 13 14  1  0  0  0
 13 17  1  0  0  0
 14 15  2  0  0  0
 14 16  2  0  0  0
 17 18  2  0  0  0
 18 19  1  0  0  0
 19 20  1  0  0  0
 19 22  1  0  0  0
 20 21  1  0  0  0
M  END
>  <CHROM.0>
177.61766147,-3.85804279

>  <CHROM.1>
137.29442238,-63.17642055,-6.37788163,-34.50355457,22.84369447,-0.37708715
-0.43386618,-2.11666626

>  <FORMUL>
      U05    C15 H14 N4 O3

>  <HET>
 U05  A 999      22

>  <HETNAM>
     U05 6,11-DIHYDRO-11-ETHYL-6-METHYL-9-NITRO-5H-PYRIDO[2,3-B]
   2 U05 [1,5]BENZODIAZEPIN-5-ONE

>  <HETSYN>
     U05 1051U91

>  <Name>
U05.pdb

>  <RI>
0

>  <Rbt.Current_Directory>
/home/malgorzata/Desktop/rDOCK_IFD/test10

>  <Rbt.Executable>
rbdock ($Id: //depot/dev/client3/rdock/2013.1/src/exe/rbdock.cxx#4 $)

>  <Rbt.Library>
libRbt.so (2013.1, Build901 2013/11/27)

>  <Rbt.Parameter_File>
/home/malgorzata/Desktop/rDock_2013.1_src/data/scripts/soft_docking.prm

>  <Rbt.Receptor>
cavity.prm

>  <SCORE>
-34.5211

>  <SCORE.INTER>
-29.6271

>  <SCORE.INTER.CONST>
1

>  <SCORE.INTER.POLAR>
0

>  <SCORE.INTER.REPUL>
0

>  <SCORE.INTER.ROT>
2

>  <SCORE.INTER.VDW>
-37.0271

>  <SCORE.INTER.norm>
-1.34668

>  <SCORE.INTRA>
0.911712

>  <SCORE.INTRA.DIHEDRAL>
4.84044

>  <SCORE.INTRA.DIHEDRAL.0>
1.34757

>  <SCORE.INTRA.POLAR>
0

>  <SCORE.INTRA.POLAR.0>
0

>  <SCORE.INTRA.REPUL>
0

>  <SCORE.INTRA.REPUL.0>
0

>  <SCORE.INTRA.VDW>
-0.0563754

>  <SCORE.INTRA.VDW.0>
0.605696

>  <SCORE.INTRA.norm>
0.0414415

>  <SCORE.RESTR>
0.111998

>  <SCORE.RESTR.CAVITY>
0.111998

>  <SCORE.RESTR.norm>
0.00509081

>  <SCORE.SYSTEM>
-5.91773

>  <SCORE.SYSTEM.CONST>
0

>  <SCORE.SYSTEM.DIHEDRAL>
0.0370889

>  <SCORE.SYSTEM.POLAR>
-1.17847

>  <SCORE.SYSTEM.VDW>
-1.92947

>  <SCORE.SYSTEM.norm>
-0.268988

>  <SCORE.heavy>
22

>  <SCORE.norm>
-1.56914

$$$$
U05.pdb
  rDOCK(R)          3D
libRbt.so/2013.1/901 2013/11/27
 22 24  0  0  0  0  0  0  0  0999 V2000
   -7.8758  -35.3134   24.3092 N   0  0  0  0  0  0
   -8.6388  -36.3771   23.8780 C   0  0  0  0  0  0
   -8.6319  -36.8011   22.5353 C   0  0  0  0  0  0
   -7.7890  -36.1021   21.5927 C   0  0  0  0  0  0
   -7.0082  -35.0374   22.0472 C   0  0  0  0  0  0
   -6.0925  -34.3127   21.0630 C   0  0  0  0  0  0
   -6.4800  -34.2379   19.8977 O   0  0  0  0  0  0
   -4.8791  -33.8127   21.4218 N   0  0  0  0  0  0
   -4.1218  -33.0290   20.4036 C   0  0  0  0  0  0
   -4.2128  -33.8639   22.7339 C   0  0  0  0  0  0
   -2.8138  -33.9911   22.8294 C   0  0  0  0  0  0
   -2.1822  -34.1088   24.1042 C   0  0  0  0  0  0
   -2.9442  -34.0978   25.2807 C   0  0  0  0  0  0
   -2.2878  -34.2589   26.6628 N   0  0  0  0  0  0
   -2.8509  -33.8039   27.6599 O   0  0  0  0  0  0
   -1.2177  -34.8098   26.6984 O   0  0  0  0  0  0
   -4.3278  -33.9471   25.1696 C   0  0  0  0  0  0
   -4.9474  -33.8188   23.9072 C   0  0  0  0  0  0
   -6.3064  -33.5433   23.7725 N   0  0  0  0  0  0
   -6.8993  -32.4286   24.6758 C   0  0  0  0  0  0
   -8.3687  -32.3716   24.7161 C   0  0  0  0  0  0
   -7.0842  -34.6623   23.4044 C   0  0  0  0  0  0
  1  2  2  0  0  0
  1 22  1  0  0  0
  2  3  1  0  0  0
  3  4  2  0  0  0
  4  5  1  0  0  0
  5  6  1  0  0  0
  5 22  2  0  0  0
  6  7  2  0  0  0
  6  8  1  0  0  0
  8  9  1  0  0  0
  8 10  1  0  0  0
 10 11  2  0  0  0
 10 18  1  0  0  0
 11 12  1  0  0  0
 12 13  2  0  0  0
 13 14  1  0  0  0
 13 17  1  0  0  0
 14 15  2  0  0  0
 14 16  2  0  0  0
 17 18  2  0  0  0
 18 19  1  0  0  0
 19 20  1  0  0  0
 19 22  1  0  0  0
 20 21  1  0  0  0
M  END
>  <CHROM.0>
174.32729712,7.02631030

>  <CHROM.1>
155.10134293,-167.22084974,-5.32290489,-34.27633858,23.62160188,2.49309103
-0.19579362,-1.52781393

>  <FORMUL>
      U05    C15 H14 N4 O3

>  <HET>
 U05  A 999      22

>  <HETNAM>
     U05 6,11-DIHYDRO-11-ETHYL-6-METHYL-9-NITRO-5H-PYRIDO[2,3-B]
   2 U05 [1,5]BENZODIAZEPIN-5-ONE

>  <HETSYN>
     U05 1051U91

>  <Name>
U05.pdb

>  <RI>
0

>  <Rbt.Current_Directory>
/home/malgorzata/Desktop/rDOCK_IFD/test10

>  <Rbt.Executable>
rbdock ($Id: //depot/dev/client3/rdock/2013.1/src/exe/rbdock.cxx#4 $)

>  <Rbt.Library>
libRbt.so (2013.1, Build901 2013/11/27)

>  <Rbt.Parameter_File>
/home/malgorzata/Desktop/rDock_2013.1_src/data/scripts/soft_docking.prm

>  <Rbt.Receptor>
cavity.prm

>  <SCORE>
-35.0349

>  <SCORE.INTER>
-29.2967

>  <SCORE.INTER.CONST>
1

>  <SCORE.INTER.POLAR>
-0.0505523

>  <SCORE.INTER.REPUL>
0

>  <SCORE.INTER.ROT>
2

>  <SCORE.INTER.VDW>
-36.5248

>  <SCORE.INTER.norm>
-1.33167

>  <SCORE.INTRA>
0.147851

>  <SCORE.INTRA.DIHEDRAL>
1.85599

>  <SCORE.INTRA.DIHEDRAL.0>
1.34757

>  <SCORE.INTRA.POLAR>
0

>  <SCORE.INTRA.POLAR.0>
0

>  <SCORE.INTRA.REPUL>
0

>  <SCORE.INTRA.REPUL.0>
0

>  <SCORE.INTRA.VDW>
-0.223347

>  <SCORE.INTRA.VDW.0>
0.605696

>  <SCORE.INTRA.norm>
0.00672048

>  <SCORE.RESTR>
0

>  <SCORE.RESTR.CAVITY>
0

>  <SCORE.RESTR.norm>
0

>  <SCORE.SYSTEM>
-5.88603

>  <SCORE.SYSTEM.CONST>
0

>  <SCORE.SYSTEM.DIHEDRAL>
0.122139

>  <SCORE.SYSTEM.POLAR>
-1.16877

>  <SCORE.SYSTEM.VDW>
-1.97329

>  <SCORE.SYSTEM.norm>
-0.267547

>  <SCORE.heavy>
22

>  <SCORE.norm>
-1.5925

$$$$
U05.pdb
  rDOCK(R)          3D
libRbt.so/2013.1/901 2013/11/27
 22 24  0  0  0  0  0  0  0  0999 V2000
   -7.9046  -35.3365   24.0502 N   0  0  0  0  0  0
   -8.6654  -36.4738   23.8852 C   0  0  0  0  0  0
   -8.8294  -37.0822   22.6260 C   0  0  0  0  0  0
   -8.1682  -36.4968   21.4825 C   0  0  0  0  0  0
   -7.3865  -35.3546   21.6676 C   0  0  0  0  0  0
   -6.6606  -34.7473   20.4691 C   0  0  0  0  0  0
   -7.2148  -34.8496   19.3755 O   0  0  0  0  0  0
   -5.4357  -34.1638   20.5719 N   0  0  0  0  0  0
   -4.8744  -33.5079   19.3558 C   0  0  0  0  0  0
   -4.5861  -34.0087   21.7644 C   0  0  0  0  0  0
   -3.1832  -34.0771   21.6660 C   0  0  0  0  0  0
   -2.3697  -33.9942   22.8361 C   0  0  0  0  0  0
   -2.9543  -33.8416   24.1010 C   0  0  0  0  0  0
   -2.0987  -33.7857   25.3784 N   0  0  0  0  0  0
   -2.4950  -33.1362   26.3475 O   0  0  0  0  0  0
   -1.0462  -34.3702   25.3568 O   0  0  0  0  0  0
   -4.3454  -33.7516   24.1787 C   0  0  0  0  0  0
   -5.1458  -33.8219   23.0174 C   0  0  0  0  0  0
   -6.5225  -33.6111   23.0516 N   0  0  0  0  0  0
   -7.0365  -32.3995   23.8750 C   0  0  0  0  0  0
   -7.0387  -32.5901   25.3336 C   0  0  0  0  0  0
   -7.2861  -34.7948   22.9580 C   0  0  0  0  0  0
  1  2  2  0  0  0
  1 22  1  0  0  0
  2  3  1  0  0  0
  3  4  2  0  0  0
  4  5  1  0  0  0
  5  6  1  0  0  0
  5 22  2  0  0  0
  6  7  2  0  0  0
  6  8  1  0  0  0
  8  9  1  0  0  0
  8 10  1  0  0  0
 10 11  2  0  0  0
 10 18  1  0  0  0
 11 12  1  0  0  0
 12 13  2  0  0  0
 13 14  1  0  0  0
 13 17  1  0  0  0
 14 15  2  0  0  0
 14 16  2  0  0  0
 17 18  2  0  0  0
 18 19  1  0  0  0
 19 20  1  0  0  0
 19 22  1  0  0  0
 20 21  1  0  0  0
M  END
>  <CHROM.0>
171.69436001,-25.25067835

>  <CHROM.1>
150.18995455,-76.43152511,-5.46120915,-34.33725363,22.91623437,2.59025791
-0.28201207,-1.63336788

>  <FORMUL>
      U05    C15 H14 N4 O3

>  <HET>
 U05  A 999      22

>  <HETNAM>
     U05 6,11-DIHYDRO-11-ETHYL-6-METHYL-9-NITRO-5H-PYRIDO[2,3-B]
   2 U05 [1,5]BENZODIAZEPIN-5-ONE

>  <HETSYN>
     U05 1051U91

>  <Name>
U05.pdb

>  <RI>
0

>  <Rbt.Current_Directory>
/home/malgorzata/Desktop/rDOCK_IFD/test10

>  <Rbt.Executable>
rbdock ($Id: //depot/dev/client3/rdock/2013.1/src/exe/rbdock.cxx#4 $)

>  <Rbt.Library>
libRbt.so (2013.1, Build901 2013/11/27)

>  <Rbt.Parameter_File>
/home/malgorzata/Desktop/rDock_2013.1_src/data/scripts/soft_docking.prm

>  <Rbt.Receptor>
cavity.prm

>  <SCORE>
-36.4509

>  <SCORE.INTER>
-30.8269

>  <SCORE.INTER.CONST>
1

>  <SCORE.INTER.POLAR>
-0.422066

>  <SCORE.INTER.REPUL>
0

>  <SCORE.INTER.ROT>
2

>  <SCORE.INTER.VDW>
-36.7919

>  <SCORE.INTER.norm>
-1.40122

>  <SCORE.INTRA>
-0.326017

>  <SCORE.INTRA.DIHEDRAL>
2.01521

>  <SCORE.INTRA.DIHEDRAL.0>
1.34757

>  <SCORE.INTRA.POLAR>
0

>  <SCORE.INTRA.POLAR.0>
0

>  <SCORE.INTRA.REPUL>
0

>  <SCORE.INTRA.REPUL.0>
0

>  <SCORE.INTRA.VDW>
-0.72906

>  <SCORE.INTRA.VDW.0>
0.605696

>  <SCORE.INTRA.norm>
-0.0148189

>  <SCORE.RESTR>
0

>  <SCORE.RESTR.CAVITY>
0

>  <SCORE.RESTR.norm>
0

>  <SCORE.SYSTEM>
-5.29792

>  <SCORE.SYSTEM.CONST>
0

>  <SCORE.SYSTEM.DIHEDRAL>
1.00245

>  <SCORE.SYSTEM.POLAR>
-1.13603

>  <SCORE.SYSTEM.VDW>
-1.93664

>  <SCORE.SYSTEM.norm>
-0.240815

>  <SCORE.heavy>
22

>  <SCORE.norm>
-1.65686

$$$$
U05.pdb
  rDOCK(R)          3D
libRbt.so/2013.1/901 2013/11/27
 22 24  0  0  0  0  0  0  0  0999 V2000
   -8.0595  -35.4460   24.1944 N   0  0  0  0  0  0
   -8.8514  -36.5410   23.9232 C   0  0  0  0  0  0
   -9.0088  -37.0391   22.6156 C   0  0  0  0  0  0
   -8.3071  -36.3840   21.5359 C   0  0  0  0  0  0
   -7.4946  -35.2865   21.8278 C   0  0  0  0  0  0
   -6.7265  -34.6071   20.6961 C   0  0  0  0  0  0
   -7.2616  -34.6020   19.5883 O   0  0  0  0  0  0
   -5.4867  -34.0737   20.8678 N   0  0  0  0  0  0
   -4.8812  -33.3392   19.7197 C   0  0  0  0  0  0
   -4.6567  -34.0438   22.0837 C   0  0  0  0  0  0
   -3.2549  -34.1491   22.0045 C   0  0  0  0  0  0
   -2.4629  -34.1881   23.1916 C   0  0  0  0  0  0
   -3.0678  -34.1205   24.4543 C   0  0  0  0  0  0
   -2.2366  -34.1965   25.7468 N   0  0  0  0  0  0
   -2.7846  -34.5128   26.8041 O   0  0  0  0  0  0
   -1.0703  -33.9090   25.6638 O   0  0  0  0  0  0
   -4.4568  -33.9924   24.5148 C   0  0  0  0  0  0
   -5.2355  -33.9419   23.3379 C   0  0  0  0  0  0
   -6.6055  -33.6904   23.3652 N   0  0  0  0  0  0
   -7.0985  -32.5341   24.2762 C   0  0  0  0  0  0
   -7.4506  -32.9263   25.6496 C   0  0  0  0  0  0
   -7.4029  -34.8373   23.1614 C   0  0  0  0  0  0
  1  2  2  0  0  0
  1 22  1  0  0  0
  2  3  1  0  0  0
  3  4  2  0  0  0
  4  5  1  0  0  0
  5  6  1  0  0  0
  5 22  2  0  0  0
  6  7  2  0  0  0
  6  8  1  0  0  0
  8  9  1  0  0  0
  8 10  1  0  0  0
 10 11  2  0  0  0
 10 18  1  0  0  0
 11 12  1  0  0  0
 12 13  2  0  0  0
 13 14  1  0  0  0
 13 17  1  0  0  0
 14 15  2  0  0  0
 14 16  2  0  0  0
 17 18  2  0  0  0
 18 19  1  0  0  0
 19 20  1  0  0  0
 19 22  1  0  0  0
 20 21  1  0  0  0
M  END
>  <CHROM.0>
174.02243519,17.82811555

>  <CHROM.1>
-159.51232923,-90.75648950,-5.58139324,-34.44080351,23.18668684,2.59552059
-0.26304376,-1.53146304

>  <FORMUL>
      U05    C15 H14 N4 O3

>  <HET>
 U05  A 999      22

>  <HETNAM>
     U05 6,11-DIHYDRO-11-ETHYL-6-METHYL-9-NITRO-5H-PYRIDO[2,3-B]
   2 U05 [1,5]BENZODIAZEPIN-5-ONE

>  <HETSYN>
     U05 1051U91

>  <Name>
U05.pdb

>  <RI>
0

>  <Rbt.Current_Directory>
/home/malgorzata/Desktop/rDOCK_IFD/test10

>  <Rbt.Executable>
rbdock ($Id: //depot/dev/client3/rdock/2013.1/src/exe/rbdock.cxx#4 $)

>  <Rbt.Library>
libRbt.so (2013.1, Build901 2013/11/27)

>  <Rbt.Parameter_File>
/home/malgorzata/Desktop/rDock_2013.1_src/data/scripts/soft_docking.prm

>  <Rbt.Receptor>
cavity.prm

>  <SCORE>
-36.9543

>  <SCORE.INTER>
-30.8289

>  <SCORE.INTER.CONST>
1

>  <SCORE.INTER.POLAR>
-0.33565

>  <SCORE.INTER.REPUL>
0

>  <SCORE.INTER.ROT>
2

>  <SCORE.INTER.VDW>
-37.0877

>  <SCORE.INTER.norm>
-1.40132

>  <SCORE.INTRA>
-0.438664

>  <SCORE.INTRA.DIHEDRAL>
0.934148

>  <SCORE.INTRA.DIHEDRAL.0>
1.34757

>  <SCORE.INTRA.POLAR>
0

>  <SCORE.INTRA.POLAR.0>
0

>  <SCORE.INTRA.REPUL>
0

>  <SCORE.INTRA.REPUL.0>
0

>  <SCORE.INTRA.VDW>
-0.625493

>  <SCORE.INTRA.VDW.0>
0.605696

>  <SCORE.INTRA.norm>
-0.0199393

>  <SCORE.RESTR>
0

>  <SCORE.RESTR.CAVITY>
0

>  <SCORE.RESTR.norm>
0

>  <SCORE.SYSTEM>
-5.68668

>  <SCORE.SYSTEM.CONST>
0

>  <SCORE.SYSTEM.DIHEDRAL>
0.498426

>  <SCORE.SYSTEM.POLAR>
-1.16501

>  <SCORE.SYSTEM.VDW>
-1.97487

>  <SCORE.SYSTEM.norm>
-0.258485

>  <SCORE.heavy>
22

>  <SCORE.norm>
-1.67974

$$$$
U05.pdb
  rDOCK(R)          3D
libRbt.so/2013.1/901 2013/11/27
 22 24  0  0  0  0  0  0  0  0999 V2000
   -2.7895  -33.5525   21.3602 N   0  0  0  0  0  0
   -3.1072  -33.3265   20.0383 C   0  0  0  0  0  0
   -4.4421  -33.2726   19.5932 C   0  0  0  0  0  0
   -5.5019  -33.4492   20.5592 C   0  0  0  0  0  0
   -5.1654  -33.6601   21.8980 C   0  0  0  0  0  0
   -6.2803  -33.8181   22.9296 C   0  0  0  0  0  0
   -7.3199  -34.3516   22.5446 O   0  0  0  0  0  0
   -6.1728  -33.3517   24.2032 N   0  0  0  0  0  0
   -7.2809  -33.6609   25.1522 C   0  0  0  0  0  0
   -5.0521  -32.6299   24.8287 C   0  0  0  0  0  0
   -5.2845  -31.6296   25.7919 C   0  0  0  0  0  0
   -4.1967  -30.8874   26.3430 C   0  0  0  0  0  0
   -2.8802  -31.1439   25.9354 C   0  0  0  0  0  0
   -1.6966  -30.3322   26.4898 N   0  0  0  0  0  0
   -0.5650  -30.5241   26.0416 O   0  0  0  0  0  0
   -1.9364  -29.5516   27.3746 O   0  0  0  0  0  0
   -2.6648  -32.1551   24.9972 C   0  0  0  0  0  0
   -3.7426  -32.8952   24.4635 C   0  0  0  0  0  0
   -3.5473  -33.9888   23.6229 N   0  0  0  0  0  0
   -2.4604  -35.0178   24.0350 C   0  0  0  0  0  0
   -1.1613  -34.8582   23.3637 C   0  0  0  0  0  0
   -3.8041  -33.7182   22.2614 C   0  0  0  0  0  0
  1  2  2  0  0  0
  1 22  1  0  0  0
  2  3  1  0  0  0
  3  4  2  0  0  0
  4  5  1  0  0  0
  5  6  1  0  0  0
  5 22  2  0  0  0
  6  7  2  0  0  0
  6  8  1  0  0  0
  8  9  1  0  0  0
  8 10  1  0  0  0
 10 11  2  0  0  0
 10 18  1  0  0  0
 11 12  1  0  0  0
 12 13  2  0  0  0
 13 14  1  0  0  0
 13 17  1  0  0  0
 14 15  2  0  0  0
 14 16  2  0  0  0
 17 18  2  0  0  0
 18 19  1  0  0  0
 19 20  1  0  0  0
 19 22  1  0  0  0
 20 21  1  0  0  0
M  END
>  <CHROM.0>
173.72786063,-26.64208097

>  <CHROM.1>
-175.08933094,-98.51698268,-3.91881611,-32.79165208,23.86568752,-2.05163813
0.16635744,1.07193442

>  <FORMUL>
      U05    C15 H14 N4 O3

>  <HET>
 U05  A 999      22

>  <HETNAM>
     U05 6,11-DIHYDRO-11-ETHYL-6-METHYL-9-NITRO-5H-PYRIDO[2,3-B]
   2 U05 [1,5]BENZODIAZEPIN-5-ONE

>  <HETSYN>
     U05 1051U91

>  <Name>
U05.pdb

>  <RI>
0

>  <Rbt.Current_Directory>
/home/malgorzata/Desktop/rDOCK_IFD/test10

>  <Rbt.Executable>
rbdock ($Id: //depot/dev/client3/rdock/2013.1/src/exe/rbdock.cxx#4 $)

>  <Rbt.Library>
libRbt.so (2013.1, Build901 2013/11/27)

>  <Rbt.Parameter_File>
/home/malgorzata/Desktop/rDock_2013.1_src/data/scripts/soft_docking.prm

>  <Rbt.Receptor>
cavity.prm

>  <SCORE>
-31.2043

>  <SCORE.INTER>
-25.7598

>  <SCORE.INTER.CONST>
1

>  <SCORE.INTER.POLAR>
0

>  <SCORE.INTER.REPUL>
0.0368371

>  <SCORE.INTER.ROT>
2

>  <SCORE.INTER.VDW>
-33.344

>  <SCORE.INTER.norm>
-1.1709

>  <SCORE.INTRA>
-0.322869

>  <SCORE.INTRA.DIHEDRAL>
-0.263491

>  <SCORE.INTRA.DIHEDRAL.0>
1.34757

>  <SCORE.INTRA.POLAR>
0

>  <SCORE.INTRA.POLAR.0>
0

>  <SCORE.INTRA.REPUL>
0

>  <SCORE.INTRA.REPUL.0>
0

>  <SCORE.INTRA.VDW>
-0.270171

>  <SCORE.INTRA.VDW.0>
0.605696

>  <SCORE.INTRA.norm>
-0.0146759

>  <SCORE.RESTR>
0.197714

>  <SCORE.RESTR.CAVITY>
0.197714

>  <SCORE.RESTR.norm>
0.00898701

>  <SCORE.SYSTEM>
-5.31939

>  <SCORE.SYSTEM.CONST>
0

>  <SCORE.SYSTEM.DIHEDRAL>
1.04921

>  <SCORE.SYSTEM.POLAR>
-1.16136

>  <SCORE.SYSTEM.VDW>
-1.89537

>  <SCORE.SYSTEM.norm>
-0.241791

>  <SCORE.heavy>
22

>  <SCORE.norm>
-1.41838

$$$$
U05.pdb
  rDOCK(R)          3D
libRbt.so/2013.1/901 2013/11/27
 22 24  0  0  0  0  0  0  0  0999 V2000
   -0.5053  -29.0399   25.7199 N   0  0  0  0  0  0
    0.3943  -28.3491   24.9368 C   0  0  0  0  0  0
    1.6265  -28.9099   24.5493 C   0  0  0  0  0  0
    1.9426  -30.2522   24.9803 C   0  0  0  0  0  0
    1.0142  -30.9465   25.7587 C   0  0  0  0  0  0
    1.3285  -32.3764   26.1932 C   0  0  0  0  0  0
    2.5114  -32.6465   26.3964 O   0  0  0  0  0  0
    0.3707  -33.3363   26.3053 N   0  0  0  0  0  0
    0.7792  -34.6658   26.8437 C   0  0  0  0  0  0
   -1.0738  -33.2322   26.0398 C   0  0  0  0  0  0
   -1.7898  -34.3186   25.5017 C   0  0  0  0  0  0
   -3.1752  -34.1872   25.1835 C   0  0  0  0  0  0
   -3.8449  -32.9755   25.4030 C   0  0  0  0  0  0
   -5.3284  -32.8010   25.0344 N   0  0  0  0  0  0
   -5.9885  -33.7824   24.6892 O   0  0  0  0  0  0
   -5.7735  -31.6829   25.0756 O   0  0  0  0  0  0
   -3.1263  -31.9155   25.9592 C   0  0  0  0  0  0
   -1.7590  -32.0534   26.2838 C   0  0  0  0  0  0
   -1.0510  -31.0568   26.9521 N   0  0  0  0  0  0
   -1.7367  -30.3981   28.1793 C   0  0  0  0  0  0
   -1.1359  -30.7249   29.4817 C   0  0  0  0  0  0
   -0.1906  -30.3088   26.1197 C   0  0  0  0  0  0
  1  2  2  0  0  0
  1 22  1  0  0  0
  2  3  1  0  0  0
  3  4  2  0  0  0
  4  5  1  0  0  0
  5  6  1  0  0  0
  5 22  2  0  0  0
  6  7  2  0  0  0
  6  8  1  0  0  0
  8  9  1  0  0  0
  8 10  1  0  0  0
 10 11  2  0  0  0
 10 18  1  0  0  0
 11 12  1  0  0  0
 12 13  2  0  0  0
 13 14  1  0  0  0
 13 17  1  0  0  0
 14 15  2  0  0  0
 14 16  2  0  0  0
 17 18  2  0  0  0
 18 19  1  0  0  0
 19 20  1  0  0  0
 19 22  1  0  0  0
 20 21  1  0  0  0
M  END
>  <CHROM.0>
-160.82350256,-176.90540229

>  <CHROM.1>
8.80222408,110.24696619,-1.26405275,-31.84327659,26.00089245,0.36015049,-0.14696826
-0.06638784

>  <FORMUL>
      U05    C15 H14 N4 O3

>  <HET>
 U05  A 999      22

>  <HETNAM>
     U05 6,11-DIHYDRO-11-ETHYL-6-METHYL-9-NITRO-5H-PYRIDO[2,3-B]
   2 U05 [1,5]BENZODIAZEPIN-5-ONE

>  <HETSYN>
     U05 1051U91

>  <Name>
U05.pdb

>  <RI>
0

>  <Rbt.Current_Directory>
/home/malgorzata/Desktop/rDOCK_IFD/test10

>  <Rbt.Executable>
rbdock ($Id: //depot/dev/client3/rdock/2013.1/src/exe/rbdock.cxx#4 $)

>  <Rbt.Library>
libRbt.so (2013.1, Build901 2013/11/27)

>  <Rbt.Parameter_File>
/home/malgorzata/Desktop/rDock_2013.1_src/data/scripts/soft_docking.prm

>  <Rbt.Receptor>
cavity.prm

>  <SCORE>
-33.8649

>  <SCORE.INTER>
-27.48

>  <SCORE.INTER.CONST>
1

>  <SCORE.INTER.POLAR>
0

>  <SCORE.INTER.REPUL>
0

>  <SCORE.INTER.ROT>
2

>  <SCORE.INTER.VDW>
-34.88

>  <SCORE.INTER.norm>
-1.24909

>  <SCORE.INTRA>
-1.0968

>  <SCORE.INTRA.DIHEDRAL>
1.08869

>  <SCORE.INTRA.DIHEDRAL.0>
1.34757

>  <SCORE.INTRA.POLAR>
0

>  <SCORE.INTRA.POLAR.0>
0

>  <SCORE.INTRA.REPUL>
0

>  <SCORE.INTRA.REPUL.0>
0

>  <SCORE.INTRA.VDW>
-1.31454

>  <SCORE.INTRA.VDW.0>
0.605696

>  <SCORE.INTRA.norm>
-0.0498547

>  <SCORE.RESTR>
0

>  <SCORE.RESTR.CAVITY>
0

>  <SCORE.RESTR.norm>
0

>  <SCORE.SYSTEM>
-5.28813

>  <SCORE.SYSTEM.CONST>
0

>  <SCORE.SYSTEM.DIHEDRAL>
0.505575

>  <SCORE.SYSTEM.POLAR>
-1.13575

>  <SCORE.SYSTEM.VDW>
-1.67936

>  <SCORE.SYSTEM.norm>
-0.24037

>  <SCORE.heavy>
22

>  <SCORE.norm>
-1.53931

$$$$
U05.pdb
  rDOCK(R)          3D
libRbt.so/2013.1/901 2013/11/27
 22 24  0  0  0  0  0  0  0  0999 V2000
   -7.3900  -34.3340   24.3840 N   0  0  0  0  0  0
   -8.1457  -35.4337   24.0384 C   0  0  0  0  0  0
   -7.9702  -36.1001   22.8104 C   0  0  0  0  0  0
   -6.9590  -35.6168   21.8985 C   0  0  0  0  0  0
   -6.1892  -34.5124   22.2694 C   0  0  0  0  0  0
   -5.0985  -34.0141   21.3236 C   0  0  0  0  0  0
   -5.3081  -34.1447   20.1184 O   0  0  0  0  0  0
   -3.9217  -33.4964   21.7690 N   0  0  0  0  0  0
   -2.9791  -32.9412   20.7553 C   0  0  0  0  0  0
   -3.4566  -33.3244   23.1554 C   0  0  0  0  0  0
   -2.0965  -33.4778   23.4855 C   0  0  0  0  0  0
   -1.6643  -33.3770   24.8423 C   0  0  0  0  0  0
   -2.5864  -33.1222   25.8669 C   0  0  0  0  0  0
   -2.1479  -33.0448   27.3396 N   0  0  0  0  0  0
   -2.9908  -32.8410   28.2148 O   0  0  0  0  0  0
   -0.9711  -33.1621   27.5659 O   0  0  0  0  0  0
   -3.9277  -32.9492   25.5198 C   0  0  0  0  0  0
   -4.3492  -33.0377   24.1749 C   0  0  0  0  0  0
   -5.6552  -32.7474   23.7863 N   0  0  0  0  0  0
   -6.3040  -31.4652   24.3737 C   0  0  0  0  0  0
   -6.3699  -31.4140   25.8424 C   0  0  0  0  0  0
   -6.4379  -33.8892   23.5096 C   0  0  0  0  0  0
  1  2  2  0  0  0
  1 22  1  0  0  0
  2  3  1  0  0  0
  3  4  2  0  0  0
  4  5  1  0  0  0
  5  6  1  0  0  0
  5 22  2  0  0  0
  6  7  2  0  0  0
  6  8  1  0  0  0
  8  9  1  0  0  0
  8 10  1  0  0  0
 10 11  2  0  0  0
 10 18  1  0  0  0
 11 12  1  0  0  0
 12 13  2  0  0  0
 13 14  1  0  0  0
 13 17  1  0  0  0
 14 15  2  0  0  0
 14 16  2  0  0  0
 17 18  2  0  0  0
 18 19  1  0  0  0
 19 20  1  0  0  0
 19 22  1  0  0  0
 20 21  1  0  0  0
M  END
>  <CHROM.0>
-172.35382394,-4.34530528

>  <CHROM.1>
-178.79897614,-58.18251801,-4.63714002,-33.53051896,24.00577913,2.28671966
-0.20257752,-1.73912263

>  <FORMUL>
      U05    C15 H14 N4 O3

>  <HET>
 U05  A 999      22

>  <HETNAM>
     U05 6,11-DIHYDRO-11-ETHYL-6-METHYL-9-NITRO-5H-PYRIDO[2,3-B]
   2 U05 [1,5]BENZODIAZEPIN-5-ONE

>  <HETSYN>
     U05 1051U91

>  <Name>
U05.pdb

>  <RI>
0

>  <Rbt.Current_Directory>
/home/malgorzata/Desktop/rDOCK_IFD/test10

>  <Rbt.Executable>
rbdock ($Id: //depot/dev/client3/rdock/2013.1/src/exe/rbdock.cxx#4 $)

>  <Rbt.Library>
libRbt.so (2013.1, Build901 2013/11/27)

>  <Rbt.Parameter_File>
/home/malgorzata/Desktop/rDock_2013.1_src/data/scripts/soft_docking.prm

>  <Rbt.Receptor>
cavity.prm

>  <SCORE>
-32.1058

>  <SCORE.INTER>
-27.1015

>  <SCORE.INTER.CONST>
1

>  <SCORE.INTER.POLAR>
0

>  <SCORE.INTER.REPUL>
0

>  <SCORE.INTER.ROT>
2

>  <SCORE.INTER.VDW>
-34.5015

>  <SCORE.INTER.norm>
-1.23189

>  <SCORE.INTRA>
0.64037

>  <SCORE.INTRA.DIHEDRAL>
-0.77255

>  <SCORE.INTRA.DIHEDRAL.0>
1.34757

>  <SCORE.INTRA.POLAR>
0

>  <SCORE.INTRA.POLAR.0>
0

>  <SCORE.INTRA.REPUL>
0

>  <SCORE.INTRA.REPUL.0>
0

>  <SCORE.INTRA.VDW>
0.79488

>  <SCORE.INTRA.VDW.0>
0.605696

>  <SCORE.INTRA.norm>
0.0291077

>  <SCORE.RESTR>
0

>  <SCORE.RESTR.CAVITY>
0

>  <SCORE.RESTR.norm>
0

>  <SCORE.SYSTEM>
-5.6447

>  <SCORE.SYSTEM.CONST>
0

>  <SCORE.SYSTEM.DIHEDRAL>
0.106131

>  <SCORE.SYSTEM.POLAR>
-1.13511

>  <SCORE.SYSTEM.VDW>
-1.8384

>  <SCORE.SYSTEM.norm>
-0.256577

>  <SCORE.heavy>
22

>  <SCORE.norm>
-1.45936

$$$$
U05.pdb
  rDOCK(R)          3D
libRbt.so/2013.1/901 2013/11/27
 22 24  0  0  0  0  0  0  0  0999 V2000
   -0.3473  -28.7317   26.1073 N   0  0  0  0  0  0
    0.5458  -28.0885   25.2776 C   0  0  0  0  0  0
    1.8015  -28.6434   24.9642 C   0  0  0  0  0  0
    2.1497  -29.9291   25.5238 C   0  0  0  0  0  0
    1.2280  -30.5771   26.3488 C   0  0  0  0  0  0
    1.5770  -31.9497   26.9202 C   0  0  0  0  0  0
    2.7634  -32.1620   27.1667 O   0  0  0  0  0  0
    0.6467  -32.9250   27.1061 N   0  0  0  0  0  0
    1.0848  -34.1850   27.7730 C   0  0  0  0  0  0
   -0.7951  -32.8920   26.8089 C   0  0  0  0  0  0
   -1.4676  -34.0459   26.3634 C   0  0  0  0  0  0
   -2.8501  -33.9888   26.0120 C   0  0  0  0  0  0
   -3.5601  -32.7839   26.1065 C   0  0  0  0  0  0
   -5.0409  -32.6916   25.6993 N   0  0  0  0  0  0
   -5.6833  -31.6755   25.9694 O   0  0  0  0  0  0
   -5.5169  -33.6510   25.1491 O   0  0  0  0  0  0
   -2.8845  -31.6544   26.5724 C   0  0  0  0  0  0
   -1.5200  -31.7180   26.9305 C   0  0  0  0  0  0
   -0.8552  -30.6416   27.5139 N   0  0  0  0  0  0
   -1.5835  -29.8937   28.6629 C   0  0  0  0  0  0
   -1.8593  -30.7029   29.8600 C   0  0  0  0  0  0
   -0.0021  -29.9472   26.6291 C   0  0  0  0  0  0
  1  2  2  0  0  0
  1 22  1  0  0  0
  2  3  1  0  0  0
  3  4  2  0  0  0
  4  5  1  0  0  0
  5  6  1  0  0  0
  5 22  2  0  0  0
  6  7  2  0  0  0
  6  8  1  0  0  0
  8  9  1  0  0  0
  8 10  1  0  0  0
 10 11  2  0  0  0
 10 18  1  0  0  0
 11 12  1  0  0  0
 12 13  2  0  0  0
 13 14  1  0  0  0
 13 17  1  0  0  0
 14 15  2  0  0  0
 14 16  2  0  0  0
 17 18  2  0  0  0
 18 19  1  0  0  0
 19 20  1  0  0  0
 19 22  1  0  0  0
 20 21  1  0  0  0
M  END
>  <CHROM.0>
179.81142863,169.20970484

>  <CHROM.1>
169.80697624,62.72525238,-1.07057720,-31.55177777,26.63297184,0.37627167
-0.13988931,-0.17596993

>  <FORMUL>
      U05    C15 H14 N4 O3

>  <HET>
 U05  A 999      22

>  <HETNAM>
     U05 6,11-DIHYDRO-11-ETHYL-6-METHYL-9-NITRO-5H-PYRIDO[2,3-B]
   2 U05 [1,5]BENZODIAZEPIN-5-ONE

>  <HETSYN>
     U05 1051U91

>  <Name>
U05.pdb

>  <RI>
0

>  <Rbt.Current_Directory>
/home/malgorzata/Desktop/rDOCK_IFD/test10

>  <Rbt.Executable>
rbdock ($Id: //depot/dev/client3/rdock/2013.1/src/exe/rbdock.cxx#4 $)

>  <Rbt.Library>
libRbt.so (2013.1, Build901 2013/11/27)

>  <Rbt.Parameter_File>
/home/malgorzata/Desktop/rDock_2013.1_src/data/scripts/soft_docking.prm

>  <Rbt.Receptor>
cavity.prm

>  <SCORE>
-35.6163

>  <SCORE.INTER>
-28.8495

>  <SCORE.INTER.CONST>
1

>  <SCORE.INTER.POLAR>
0

>  <SCORE.INTER.REPUL>
0

>  <SCORE.INTER.ROT>
2

>  <SCORE.INTER.VDW>
-36.2495

>  <SCORE.INTER.norm>
-1.31134

>  <SCORE.INTRA>
-1.09782

>  <SCORE.INTRA.DIHEDRAL>
-0.390106

>  <SCORE.INTRA.DIHEDRAL.0>
1.34757

>  <SCORE.INTRA.POLAR>
0

>  <SCORE.INTRA.POLAR.0>
0

>  <SCORE.INTRA.REPUL>
0

>  <SCORE.INTRA.REPUL.0>
0

>  <SCORE.INTRA.VDW>
-1.0198

>  <SCORE.INTRA.VDW.0>
0.605696

>  <SCORE.INTRA.norm>
-0.0499008

>  <SCORE.RESTR>
0

>  <SCORE.RESTR.CAVITY>
0

>  <SCORE.RESTR.norm>
0

>  <SCORE.SYSTEM>
-5.66903

>  <SCORE.SYSTEM.CONST>
0

>  <SCORE.SYSTEM.DIHEDRAL>
0.177352

>  <SCORE.SYSTEM.POLAR>
-1.16839

>  <SCORE.SYSTEM.VDW>
-1.78516

>  <SCORE.SYSTEM.norm>
-0.257683

>  <SCORE.heavy>
22

>  <SCORE.norm>
-1.61892

$$$$
U05.pdb
  rDOCK(R)          3D
libRbt.so/2013.1/901 2013/11/27
 22 24  0  0  0  0  0  0  0  0999 V2000
   -3.4363  -35.3259   20.8130 N   0  0  0  0  0  0
   -2.1226  -35.6792   21.0344 C   0  0  0  0  0  0
   -1.3532  -35.0815   22.0510 C   0  0  0  0  0  0
   -1.9706  -34.0785   22.8878 C   0  0  0  0  0  0
   -3.3074  -33.7431   22.6633 C   0  0  0  0  0  0
   -3.9755  -32.7054   23.5628 C   0  0  0  0  0  0
   -3.2590  -31.8038   23.9957 O   0  0  0  0  0  0
   -5.2847  -32.7827   23.9250 N   0  0  0  0  0  0
   -5.8546  -31.6539   24.7158 C   0  0  0  0  0  0
   -6.2786  -33.8111   23.5748 C   0  0  0  0  0  0
   -7.2767  -34.1933   24.4914 C   0  0  0  0  0  0
   -8.1937  -35.2390   24.1701 C   0  0  0  0  0  0
   -8.1162  -35.9006   22.9367 C   0  0  0  0  0  0
   -9.0714  -37.0540   22.5839 N   0  0  0  0  0  0
   -9.9942  -37.3350   23.3505 O   0  0  0  0  0  0
   -8.8472  -37.6570   21.5661 O   0  0  0  0  0  0
   -7.1359  -35.4935   22.0297 C   0  0  0  0  0  0
   -6.2385  -34.4504   22.3468 C   0  0  0  0  0  0
   -5.3344  -33.9415   21.4169 N   0  0  0  0  0  0
   -5.8702  -33.6504   19.9893 C   0  0  0  0  0  0
   -5.1119  -32.6447   19.2294 C   0  0  0  0  0  0
   -4.0053  -34.3748   21.6134 C   0  0  0  0  0  0
  1  2  2  0  0  0
  1 22  1  0  0  0
  2  3  1  0  0  0
  3  4  2  0  0  0
  4  5  1  0  0  0
  5  6  1  0  0  0
  5 22  2  0  0  0
  6  7  2  0  0  0
  6  8  1  0  0  0
  8  9  1  0  0  0
  8 10  1  0  0  0
 10 11  2  0  0  0
 10 18  1  0  0  0
 11 12  1  0  0  0
 12 13  2  0  0  0
 13 14  1  0  0  0
 13 17  1  0  0  0
 14 15  2  0  0  0
 14 16  2  0  0  0
 17 18  2  0  0  0
 18 19  1  0  0  0
 19 20  1  0  0  0
 19 22  1  0  0  0
 20 21  1  0  0  0
M  END
>  <CHROM.0>
-163.56486984,103.46649583

>  <CHROM.1>
5.98663900,155.86910839,-5.60967614,-34.49126299,22.48630146,-0.24779554
-0.41370152,-2.31384949

>  <FORMUL>
      U05    C15 H14 N4 O3

>  <HET>
 U05  A 999      22

>  <HETNAM>
     U05 6,11-DIHYDRO-11-ETHYL-6-METHYL-9-NITRO-5H-PYRIDO[2,3-B]
   2 U05 [1,5]BENZODIAZEPIN-5-ONE

>  <HETSYN>
     U05 1051U91

>  <Name>
U05.pdb

>  <RI>
0

>  <Rbt.Current_Directory>
/home/malgorzata/Desktop/rDOCK_IFD/test10

>  <Rbt.Executable>
rbdock ($Id: //depot/dev/client3/rdock/2013.1/src/exe/rbdock.cxx#4 $)

>  <Rbt.Library>
libRbt.so (2013.1, Build901 2013/11/27)

>  <Rbt.Parameter_File>
/home/malgorzata/Desktop/rDock_2013.1_src/data/scripts/soft_docking.prm

>  <Rbt.Receptor>
cavity.prm

>  <SCORE>
-29.601

>  <SCORE.INTER>
-25.3729

>  <SCORE.INTER.CONST>
1

>  <SCORE.INTER.POLAR>
0

>  <SCORE.INTER.REPUL>
0.0221201

>  <SCORE.INTER.ROT>
2

>  <SCORE.INTER.VDW>
-32.8835

>  <SCORE.INTER.norm>
-1.15331

>  <SCORE.INTRA>
-1.19425

>  <SCORE.INTRA.DIHEDRAL>
-0.756549

>  <SCORE.INTRA.DIHEDRAL.0>
1.34757

>  <SCORE.INTRA.POLAR>
0

>  <SCORE.INTRA.POLAR.0>
0

>  <SCORE.INTRA.REPUL>
0

>  <SCORE.INTRA.REPUL.0>
0

>  <SCORE.INTRA.VDW>
-1.04294

>  <SCORE.INTRA.VDW.0>
0.605696

>  <SCORE.INTRA.norm>
-0.054284

>  <SCORE.RESTR>
0.0425546

>  <SCORE.RESTR.CAVITY>
0.0425546

>  <SCORE.RESTR.norm>
0.0019343

>  <SCORE.SYSTEM>
-3.07636

>  <SCORE.SYSTEM.CONST>
0

>  <SCORE.SYSTEM.DIHEDRAL>
4.9125

>  <SCORE.SYSTEM.POLAR>
-1.13017

>  <SCORE.SYSTEM.VDW>
-1.69002

>  <SCORE.SYSTEM.norm>
-0.139834

>  <SCORE.heavy>
22

>  <SCORE.norm>
-1.3455

$$$$
U05.pdb
  rDOCK(R)          3D
libRbt.so/2013.1/901 2013/11/27
 22 24  0  0  0  0  0  0  0  0999 V2000
   -7.4458  -35.5845   23.8787 N   0  0  0  0  0  0
   -8.3939  -36.4867   23.4465 C   0  0  0  0  0  0
   -8.6535  -36.6942   22.0782 C   0  0  0  0  0  0
   -7.8912  -35.9436   21.1071 C   0  0  0  0  0  0
   -6.9219  -35.0457   21.5590 C   0  0  0  0  0  0
   -6.0918  -34.2705   20.5381 C   0  0  0  0  0  0
   -6.6475  -33.9765   19.4807 O   0  0  0  0  0  0
   -4.7841  -33.9557   20.7432 N   0  0  0  0  0  0
   -4.1073  -33.1015   19.7251 C   0  0  0  0  0  0
   -3.9290  -34.2772   21.8980 C   0  0  0  0  0  0
   -2.5594  -34.5559   21.7276 C   0  0  0  0  0  0
   -1.7525  -34.9335   22.8430 C   0  0  0  0  0  0
   -2.3101  -35.0310   24.1254 C   0  0  0  0  0  0
   -1.4672  -35.4705   25.3351 N   0  0  0  0  0  0
   -0.4634  -36.1624   25.1573 O   0  0  0  0  0  0
   -1.8556  -35.1319   26.4233 O   0  0  0  0  0  0
   -3.6642  -34.7283   24.2811 C   0  0  0  0  0  0
   -4.4561  -34.3434   23.1771 C   0  0  0  0  0  0
   -5.7743  -33.9168   23.3226 N   0  0  0  0  0  0
   -6.0728  -32.9038   24.4605 C   0  0  0  0  0  0
   -6.7292  -31.6586   24.0332 C   0  0  0  0  0  0
   -6.7337  -34.8818   22.9469 C   0  0  0  0  0  0
  1  2  2  0  0  0
  1 22  1  0  0  0
  2  3  1  0  0  0
  3  4  2  0  0  0
  4  5  1  0  0  0
  5  6  1  0  0  0
  5 22  2  0  0  0
  6  7  2  0  0  0
  6  8  1  0  0  0
  8  9  1  0  0  0
  8 10  1  0  0  0
 10 11  2  0  0  0
 10 18  1  0  0  0
 11 12  1  0  0  0
 12 13  2  0  0  0
 13 14  1  0  0  0
 13 17  1  0  0  0
 14 15  2  0  0  0
 14 16  2  0  0  0
 17 18  2  0  0  0
 18 19  1  0  0  0
 19 20  1  0  0  0
 19 22  1  0  0  0
 20 21  1  0  0  0
M  END
>  <CHROM.0>
178.64984550,168.26873883

>  <CHROM.1>
-24.74265840,124.54687662,-4.88920570,-34.66078733,22.86529267,2.62831094
-0.09921264,-1.28208004

>  <FORMUL>
      U05    C15 H14 N4 O3

>  <HET>
 U05  A 999      22

>  <HETNAM>
     U05 6,11-DIHYDRO-11-ETHYL-6-METHYL-9-NITRO-5H-PYRIDO[2,3-B]
   2 U05 [1,5]BENZODIAZEPIN-5-ONE

>  <HETSYN>
     U05 1051U91

>  <Name>
U05.pdb

>  <RI>
0

>  <Rbt.Current_Directory>
/home/malgorzata/Desktop/rDOCK_IFD/test10

>  <Rbt.Executable>
rbdock ($Id: //depot/dev/client3/rdock/2013.1/src/exe/rbdock.cxx#4 $)

>  <Rbt.Library>
libRbt.so (2013.1, Build901 2013/11/27)

>  <Rbt.Parameter_File>
/home/malgorzata/Desktop/rDock_2013.1_src/data/scripts/soft_docking.prm

>  <Rbt.Receptor>
cavity.prm

>  <SCORE>
-33.4358

>  <SCORE.INTER>
-26.8597

>  <SCORE.INTER.CONST>
1

>  <SCORE.INTER.POLAR>
-0.521347

>  <SCORE.INTER.REPUL>
0

>  <SCORE.INTER.ROT>
2

>  <SCORE.INTER.VDW>
-32.4871

>  <SCORE.INTER.norm>
-1.2209

>  <SCORE.INTRA>
-0.898784

>  <SCORE.INTRA.DIHEDRAL>
2.5497

>  <SCORE.INTRA.DIHEDRAL.0>
1.34757

>  <SCORE.INTRA.POLAR>
0

>  <SCORE.INTRA.POLAR.0>
0

>  <SCORE.INTRA.REPUL>
0

>  <SCORE.INTRA.REPUL.0>
0

>  <SCORE.INTRA.VDW>
-1.40872

>  <SCORE.INTRA.VDW.0>
0.605696

>  <SCORE.INTRA.norm>
-0.0408538

>  <SCORE.RESTR>
0

>  <SCORE.RESTR.CAVITY>
0

>  <SCORE.RESTR.norm>
0

>  <SCORE.SYSTEM>
-5.67732

>  <SCORE.SYSTEM.CONST>
0

>  <SCORE.SYSTEM.DIHEDRAL>
0.212425

>  <SCORE.SYSTEM.POLAR>
-1.17555

>  <SCORE.SYSTEM.VDW>
-1.78668

>  <SCORE.SYSTEM.norm>
-0.25806

>  <SCORE.heavy>
22

>  <SCORE.norm>
-1.51981

$$$$
