FLP.pdb
  rDOCK(R)          3D
libRbt.so/2013.1/901 2013/11/27
 19 20  0  0  0  0  0  0  0  0999 V2000
   18.9201   21.8608   18.0379 C   0  0  0  0  0  0
   19.9532   22.2240   17.1459 C   0  0  0  0  0  0
   21.2765   21.9305   17.4591 C   0  0  0  0  0  0
   21.5640   21.2769   18.6586 C   0  0  0  0  0  0
   20.5284   20.9172   19.5422 C   0  0  0  0  0  0
   19.2062   21.2123   19.2266 C   0  0  0  0  0  0
   22.4000   22.3418   16.5316 C   0  0  0  0  0  0
   22.4287   23.6239   15.9313 C   0  0  0  0  0  0
   23.5155   23.9857   15.0780 C   0  0  0  0  0  0
   24.5695   23.0375   14.8401 C   0  0  0  0  0  0
   24.5289   21.7862   15.4430 C   0  0  0  0  0  0
   23.4630   21.4295   16.2751 C   0  0  0  0  0  0
   25.6905   23.3345   13.8654 C   0  0  0  0  0  0
   26.8095   24.1124   14.5540 C   0  0  0  0  0  0
   25.1089   24.1515   12.7123 C   0  0  0  0  0  0
   25.0111   25.3502   12.8045 O   0  0  0  0  0  0
   24.6820   23.5622   11.6268 O   0  0  0  0  0  0
   23.4461   20.1873   16.8275 F   0  0  0  0  0  0
   24.7800   22.6356   11.5273 H   0  0  0  0  0  0
  1  2  2  0  0  0
  2  3  1  0  0  0
  3  7  1  0  0  0
  4  3  2  0  0  0
  5  4  1  0  0  0
  6  5  2  0  0  0
  6  1  1  0  0  0
  7  8  2  0  0  0
  7 12  1  0  0  0
  8  9  1  0  0  0
  9 10  2  0  0  0
 10 13  1  0  0  0
 11 10  1  0  0  0
 12 11  2  0  0  0
 13 14  1  0  0  0
 15 17  1  0  0  0
 15 13  1  0  0  0
 16 15  2  0  0  0
 17 19  1  0  0  0
 18 12  1  0  0  0
M  END
>  <CHROM.0>
3.09012326,-62.27031942,19.61041587,-61.67181610,-1.63209470,-60.37810297

>  <CHROM.1>
43.41590068,85.95872985,-3.83449436,85.10943726,23.03941401,22.57396524,15.82974793
2.32440438,-0.31897220,2.32833461

>  <FORMUL>
      FLP    C15 H13 F1 O2

>  <HET>
 FLP  A 701      18

>  <HETNAM>
     FLP FLURBIPROFEN

>  <Name>
FLP.pdb

>  <RI>
0

>  <Rbt.Current_Directory>
/home/malgorzata/Desktop/rDOCK_IFD/Wyniki/4b_COX2/IFD

>  <Rbt.Executable>
rbdock ($Id: //depot/dev/client3/rdock/2013.1/src/exe/rbdock.cxx#4 $)

>  <Rbt.Library>
libRbt.so (2013.1, Build901 2013/11/27)

>  <Rbt.Parameter_File>
/home/malgorzata/Desktop/rDock_2013.1_src/data/scripts/hard_docking.prm

>  <Rbt.Receptor>
cavity.prm

>  <SCORE>
-15.9699

>  <SCORE.INTER>
-13.8906

>  <SCORE.INTER.CONST>
1

>  <SCORE.INTER.POLAR>
-1.42626

>  <SCORE.INTER.REPUL>
0

>  <SCORE.INTER.ROT>
3

>  <SCORE.INTER.VDW>
-17.4413

>  <SCORE.INTER.norm>
-0.7717

>  <SCORE.INTRA>
-1.06996

>  <SCORE.INTRA.DIHEDRAL>
-0.631728

>  <SCORE.INTRA.DIHEDRAL.0>
5.47211

>  <SCORE.INTRA.POLAR>
0

>  <SCORE.INTRA.POLAR.0>
0

>  <SCORE.INTRA.REPUL>
0

>  <SCORE.INTRA.REPUL.0>
0

>  <SCORE.INTRA.VDW>
-0.754098

>  <SCORE.INTRA.VDW.0>
0.722234

>  <SCORE.INTRA.norm>
-0.0594423

>  <SCORE.RESTR>
0

>  <SCORE.RESTR.CAVITY>
0

>  <SCORE.RESTR.norm>
0

>  <SCORE.SYSTEM>
-1.00931

>  <SCORE.SYSTEM.CONST>
0

>  <SCORE.SYSTEM.DIHEDRAL>
0.526944

>  <SCORE.SYSTEM.POLAR>
-0.859767

>  <SCORE.SYSTEM.VDW>
1.65043

>  <SCORE.SYSTEM.norm>
-0.0560726

>  <SCORE.heavy>
18

>  <SCORE.norm>
-0.887215

$$$$
FLP.pdb
  rDOCK(R)          3D
libRbt.so/2013.1/901 2013/11/27
 19 20  0  0  0  0  0  0  0  0999 V2000
   18.0417   21.9234   18.5570 C   0  0  0  0  0  0
   19.3177   21.8019   17.9637 C   0  0  0  0  0  0
   20.4138   21.4419   18.7411 C   0  0  0  0  0  0
   20.2334   21.2047   20.1049 C   0  0  0  0  0  0
   18.9580   21.3270   20.6888 C   0  0  0  0  0  0
   17.8639   21.6875   19.9090 C   0  0  0  0  0  0
   21.7949   21.3394   18.1299 C   0  0  0  0  0  0
   22.2841   22.3289   17.2430 C   0  0  0  0  0  0
   23.6006   22.2108   16.7016 C   0  0  0  0  0  0
   24.4134   21.0828   17.0672 C   0  0  0  0  0  0
   23.9200   20.1247   17.9444 C   0  0  0  0  0  0
   22.6296   20.2373   18.4716 C   0  0  0  0  0  0
   25.7756   20.8588   16.4432 C   0  0  0  0  0  0
   26.8616   21.5565   17.2588 C   0  0  0  0  0  0
   25.7403   21.4164   15.0208 C   0  0  0  0  0  0
   26.2200   22.4963   14.7784 O   0  0  0  0  0  0
   25.1645   20.7476   14.0569 O   0  0  0  0  0  0
   22.1729   19.2672   19.3075 F   0  0  0  0  0  0
   25.2408   21.0432   13.1710 H   0  0  0  0  0  0
  1  2  2  0  0  0
  2  3  1  0  0  0
  3  7  1  0  0  0
  4  3  2  0  0  0
  5  4  1  0  0  0
  6  5  2  0  0  0
  6  1  1  0  0  0
  7  8  2  0  0  0
  7 12  1  0  0  0
  8  9  1  0  0  0
  9 10  2  0  0  0
 10 13  1  0  0  0
 11 10  1  0  0  0
 12 11  2  0  0  0
 13 14  1  0  0  0
 15 17  1  0  0  0
 15 13  1  0  0  0
 16 15  2  0  0  0
 17 19  1  0  0  0
 18 12  1  0  0  0
M  END
>  <CHROM.0>
157.95739446,63.19708931,-79.11790007,62.91092255,1.13369387,-60.37810297

>  <CHROM.1>
44.37303501,89.74809257,-172.29615551,100.68160306,22.62857161,21.24471390
17.63001509,2.68650414,-0.28579532,2.10663233

>  <FORMUL>
      FLP    C15 H13 F1 O2

>  <HET>
 FLP  A 701      18

>  <HETNAM>
     FLP FLURBIPROFEN

>  <Name>
FLP.pdb

>  <RI>
0

>  <Rbt.Current_Directory>
/home/malgorzata/Desktop/rDOCK_IFD/Wyniki/4b_COX2/IFD

>  <Rbt.Executable>
rbdock ($Id: //depot/dev/client3/rdock/2013.1/src/exe/rbdock.cxx#4 $)

>  <Rbt.Library>
libRbt.so (2013.1, Build901 2013/11/27)

>  <Rbt.Parameter_File>
/home/malgorzata/Desktop/rDock_2013.1_src/data/scripts/hard_docking.prm

>  <Rbt.Receptor>
cavity.prm

>  <SCORE>
-18.9561

>  <SCORE.INTER>
-15.8367

>  <SCORE.INTER.CONST>
1

>  <SCORE.INTER.POLAR>
-0.992567

>  <SCORE.INTER.REPUL>
0

>  <SCORE.INTER.ROT>
3

>  <SCORE.INTER.VDW>
-20.862

>  <SCORE.INTER.norm>
-0.879818

>  <SCORE.INTRA>
-0.720881

>  <SCORE.INTRA.DIHEDRAL>
-0.762101

>  <SCORE.INTRA.DIHEDRAL.0>
5.47211

>  <SCORE.INTRA.POLAR>
0

>  <SCORE.INTRA.POLAR.0>
0

>  <SCORE.INTRA.REPUL>
0

>  <SCORE.INTRA.REPUL.0>
0

>  <SCORE.INTRA.VDW>
-0.33983

>  <SCORE.INTRA.VDW.0>
0.722234

>  <SCORE.INTRA.norm>
-0.0400489

>  <SCORE.RESTR>
0

>  <SCORE.RESTR.CAVITY>
0

>  <SCORE.RESTR.norm>
0

>  <SCORE.SYSTEM>
-2.39846

>  <SCORE.SYSTEM.CONST>
0

>  <SCORE.SYSTEM.DIHEDRAL>
5.44286

>  <SCORE.SYSTEM.POLAR>
-0.826201

>  <SCORE.SYSTEM.VDW>
-2.3108

>  <SCORE.SYSTEM.norm>
-0.133248

>  <SCORE.heavy>
18

>  <SCORE.norm>
-1.05311

$$$$
FLP.pdb
  rDOCK(R)          3D
libRbt.so/2013.1/901 2013/11/27
 19 20  0  0  0  0  0  0  0  0999 V2000
   25.0674   23.7351   12.4479 C   0  0  0  0  0  0
   24.6425   22.8899   13.4967 C   0  0  0  0  0  0
   25.5183   22.5697   14.5291 C   0  0  0  0  0  0
   26.8123   23.0930   14.5117 C   0  0  0  0  0  0
   27.2282   23.9357   13.4632 C   0  0  0  0  0  0
   26.3504   24.2538   12.4320 C   0  0  0  0  0  0
   25.0918   21.6387   15.6440 C   0  0  0  0  0  0
   26.0424   20.9173   16.4063 C   0  0  0  0  0  0
   25.6053   20.0639   17.4650 C   0  0  0  0  0  0
   24.1993   19.9495   17.7420 C   0  0  0  0  0  0
   23.2808   20.6702   16.9885 C   0  0  0  0  0  0
   23.7075   21.5026   15.9489 C   0  0  0  0  0  0
   23.6785   18.9826   18.7855 C   0  0  0  0  0  0
   22.5754   19.6325   19.6174 C   0  0  0  0  0  0
   24.8496   18.5790   19.6807 C   0  0  0  0  0  0
   25.3270   19.3731   20.4530 O   0  0  0  0  0  0
   25.3684   17.3823   19.6002 O   0  0  0  0  0  0
   22.7773   22.1728   15.2180 F   0  0  0  0  0  0
   25.0335   16.7674   18.9775 H   0  0  0  0  0  0
  1  2  2  0  0  0
  2  3  1  0  0  0
  3  7  1  0  0  0
  4  3  2  0  0  0
  5  4  1  0  0  0
  6  5  2  0  0  0
  6  1  1  0  0  0
  7  8  2  0  0  0
  7 12  1  0  0  0
  8  9  1  0  0  0
  9 10  2  0  0  0
 10 13  1  0  0  0
 11 10  1  0  0  0
 12 11  2  0  0  0
 13 14  1  0  0  0
 15 17  1  0  0  0
 15 13  1  0  0  0
 16 15  2  0  0  0
 17 19  1  0  0  0
 18 12  1  0  0  0
M  END
>  <CHROM.0>
1.83344329,-60.95131319,18.85436109,165.99942026,174.87944680,-60.37810297

>  <CHROM.1>
156.55637587,138.05461635,1.20028969,70.74139531,24.84087444,21.11720063
16.44937884,1.40536902,0.01911362,-0.91341918

>  <FORMUL>
      FLP    C15 H13 F1 O2

>  <HET>
 FLP  A 701      18

>  <HETNAM>
     FLP FLURBIPROFEN

>  <Name>
FLP.pdb

>  <RI>
0

>  <Rbt.Current_Directory>
/home/malgorzata/Desktop/rDOCK_IFD/Wyniki/4b_COX2/IFD

>  <Rbt.Executable>
rbdock ($Id: //depot/dev/client3/rdock/2013.1/src/exe/rbdock.cxx#4 $)

>  <Rbt.Library>
libRbt.so (2013.1, Build901 2013/11/27)

>  <Rbt.Parameter_File>
/home/malgorzata/Desktop/rDock_2013.1_src/data/scripts/hard_docking.prm

>  <Rbt.Receptor>
cavity.prm

>  <SCORE>
-15.1377

>  <SCORE.INTER>
-12.2241

>  <SCORE.INTER.CONST>
1

>  <SCORE.INTER.POLAR>
-0.965803

>  <SCORE.INTER.REPUL>
0

>  <SCORE.INTER.ROT>
3

>  <SCORE.INTER.VDW>
-17.3404

>  <SCORE.INTER.norm>
-0.679117

>  <SCORE.INTRA>
0.740887

>  <SCORE.INTRA.DIHEDRAL>
-1.59316

>  <SCORE.INTRA.DIHEDRAL.0>
5.47211

>  <SCORE.INTRA.POLAR>
0

>  <SCORE.INTRA.POLAR.0>
0

>  <SCORE.INTRA.REPUL>
0

>  <SCORE.INTRA.REPUL.0>
0

>  <SCORE.INTRA.VDW>
1.53747

>  <SCORE.INTRA.VDW.0>
0.722234

>  <SCORE.INTRA.norm>
0.0411604

>  <SCORE.RESTR>
0

>  <SCORE.RESTR.CAVITY>
0

>  <SCORE.RESTR.norm>
0

>  <SCORE.SYSTEM>
-3.65444

>  <SCORE.SYSTEM.CONST>
0

>  <SCORE.SYSTEM.DIHEDRAL>
1.40824

>  <SCORE.SYSTEM.POLAR>
-0.858708

>  <SCORE.SYSTEM.VDW>
-1.43895

>  <SCORE.SYSTEM.norm>
-0.203024

>  <SCORE.heavy>
18

>  <SCORE.norm>
-0.840981

$$$$
FLP.pdb
  rDOCK(R)          3D
libRbt.so/2013.1/901 2013/11/27
 19 20  0  0  0  0  0  0  0  0999 V2000
   25.6876   24.8679   15.9649 C   0  0  0  0  0  0
   25.3713   23.7323   16.7429 C   0  0  0  0  0  0
   24.7037   22.6577   16.1641 C   0  0  0  0  0  0
   24.3547   22.7197   14.8139 C   0  0  0  0  0  0
   24.6744   23.8549   14.0447 C   0  0  0  0  0  0
   25.3417   24.9280   14.6263 C   0  0  0  0  0  0
   24.3266   21.4463   16.9898 C   0  0  0  0  0  0
   25.3106   20.6563   17.6322 C   0  0  0  0  0  0
   24.9171   19.5325   18.4211 C   0  0  0  0  0  0
   23.5204   19.2186   18.5515 C   0  0  0  0  0  0
   22.5676   20.0088   17.9200 C   0  0  0  0  0  0
   22.9522   21.1067   17.1439 C   0  0  0  0  0  0
   23.0574   17.9808   19.2922 C   0  0  0  0  0  0
   23.3400   18.1118   20.7870 C   0  0  0  0  0  0
   23.8042   16.7788   18.7149 C   0  0  0  0  0  0
   24.2047   15.9043   19.4429 O   0  0  0  0  0  0
   24.0457   16.6971   17.4332 O   0  0  0  0  0  0
   21.9925   21.8415   16.5215 F   0  0  0  0  0  0
   24.4882   15.9473   17.0867 H   0  0  0  0  0  0
  1  2  2  0  0  0
  2  3  1  0  0  0
  3  7  1  0  0  0
  4  3  2  0  0  0
  5  4  1  0  0  0
  6  5  2  0  0  0
  6  1  1  0  0  0
  7  8  2  0  0  0
  7 12  1  0  0  0
  8  9  1  0  0  0
  9 10  2  0  0  0
 10 13  1  0  0  0
 11 10  1  0  0  0
 12 11  2  0  0  0
 13 14  1  0  0  0
 15 17  1  0  0  0
 15 13  1  0  0  0
 16 15  2  0  0  0
 17 19  1  0  0  0
 18 12  1  0  0  0
M  END
>  <CHROM.0>
-163.81626524,63.76400560,-14.13742083,62.71065184,176.98350068,-60.37810297

>  <CHROM.1>
-60.87253132,68.53336554,-178.69584819,140.11947945,24.06912005,20.55940477
17.32193509,-1.42649825,-0.00197579,2.62700360

>  <FORMUL>
      FLP    C15 H13 F1 O2

>  <HET>
 FLP  A 701      18

>  <HETNAM>
     FLP FLURBIPROFEN

>  <Name>
FLP.pdb

>  <RI>
0

>  <Rbt.Current_Directory>
/home/malgorzata/Desktop/rDOCK_IFD/Wyniki/4b_COX2/IFD

>  <Rbt.Executable>
rbdock ($Id: //depot/dev/client3/rdock/2013.1/src/exe/rbdock.cxx#4 $)

>  <Rbt.Library>
libRbt.so (2013.1, Build901 2013/11/27)

>  <Rbt.Parameter_File>
/home/malgorzata/Desktop/rDock_2013.1_src/data/scripts/hard_docking.prm

>  <Rbt.Receptor>
cavity.prm

>  <SCORE>
-15.0911

>  <SCORE.INTER>
-12.8168

>  <SCORE.INTER.CONST>
1

>  <SCORE.INTER.POLAR>
-0.89527

>  <SCORE.INTER.REPUL>
0

>  <SCORE.INTER.ROT>
3

>  <SCORE.INTER.VDW>
-18.1729

>  <SCORE.INTER.norm>
-0.712045

>  <SCORE.INTRA>
-0.734729

>  <SCORE.INTRA.DIHEDRAL>
0.0967741

>  <SCORE.INTRA.DIHEDRAL.0>
5.47211

>  <SCORE.INTRA.POLAR>
0

>  <SCORE.INTRA.POLAR.0>
0

>  <SCORE.INTRA.REPUL>
0

>  <SCORE.INTRA.REPUL.0>
0

>  <SCORE.INTRA.VDW>
-0.783116

>  <SCORE.INTRA.VDW.0>
0.722234

>  <SCORE.INTRA.norm>
-0.0408183

>  <SCORE.RESTR>
0

>  <SCORE.RESTR.CAVITY>
0

>  <SCORE.RESTR.norm>
0

>  <SCORE.SYSTEM>
-1.53954

>  <SCORE.SYSTEM.CONST>
0

>  <SCORE.SYSTEM.DIHEDRAL>
0.856746

>  <SCORE.SYSTEM.POLAR>
-0.0238148

>  <SCORE.SYSTEM.VDW>
-1.88695

>  <SCORE.SYSTEM.norm>
-0.0855302

>  <SCORE.heavy>
18

>  <SCORE.norm>
-0.838394

$$$$
FLP.pdb
  rDOCK(R)          3D
libRbt.so/2013.1/901 2013/11/27
 19 20  0  0  0  0  0  0  0  0999 V2000
   25.3842   24.9548   16.5051 C   0  0  0  0  0  0
   25.2602   23.7561   17.2418 C   0  0  0  0  0  0
   26.1229   22.6940   16.9909 C   0  0  0  0  0  0
   27.1044   22.8311   16.0078 C   0  0  0  0  0  0
   27.2223   24.0296   15.2781 C   0  0  0  0  0  0
   26.3580   25.0898   15.5311 C   0  0  0  0  0  0
   25.9839   21.3898   17.7468 C   0  0  0  0  0  0
   27.1190   20.6831   18.2128 C   0  0  0  0  0  0
   26.9497   19.4662   18.9413 C   0  0  0  0  0  0
   25.6222   18.9746   19.1916 C   0  0  0  0  0  0
   24.5192   19.6846   18.7330 C   0  0  0  0  0  0
   24.6842   20.8738   18.0160 C   0  0  0  0  0  0
   25.3918   17.6398   19.8700 C   0  0  0  0  0  0
   26.6957   16.8504   19.9597 C   0  0  0  0  0  0
   24.3592   16.8664   19.0509 C   0  0  0  0  0  0
   24.3621   16.9355   17.8466 O   0  0  0  0  0  0
   23.4426   16.1468   19.6424 O   0  0  0  0  0  0
   23.5817   21.5276   17.5625 F   0  0  0  0  0  0
   22.8141   15.6761   19.1311 H   0  0  0  0  0  0
  1  2  2  0  0  0
  2  3  1  0  0  0
  3  7  1  0  0  0
  4  3  2  0  0  0
  5  4  1  0  0  0
  6  5  2  0  0  0
  6  1  1  0  0  0
  7  8  2  0  0  0
  7 12  1  0  0  0
  8  9  1  0  0  0
  9 10  2  0  0  0
 10 13  1  0  0  0
 11 10  1  0  0  0
 12 11  2  0  0  0
 13 14  1  0  0  0
 15 17  1  0  0  0
 15 13  1  0  0  0
 16 15  2  0  0  0
 17 19  1  0  0  0
 18 12  1  0  0  0
M  END
>  <CHROM.0>
157.61417336,63.52519435,-141.77439827,62.75359859,173.32420989,-60.37810297

>  <CHROM.1>
-138.86966350,-11.19172848,-179.98571074,37.25712318,25.47785383,20.45982030
17.93510039,1.39644576,-0.05115863,-0.42683003

>  <FORMUL>
      FLP    C15 H13 F1 O2

>  <HET>
 FLP  A 701      18

>  <HETNAM>
     FLP FLURBIPROFEN

>  <Name>
FLP.pdb

>  <RI>
0

>  <Rbt.Current_Directory>
/home/malgorzata/Desktop/rDOCK_IFD/Wyniki/4b_COX2/IFD

>  <Rbt.Executable>
rbdock ($Id: //depot/dev/client3/rdock/2013.1/src/exe/rbdock.cxx#4 $)

>  <Rbt.Library>
libRbt.so (2013.1, Build901 2013/11/27)

>  <Rbt.Parameter_File>
/home/malgorzata/Desktop/rDock_2013.1_src/data/scripts/hard_docking.prm

>  <Rbt.Receptor>
cavity.prm

>  <SCORE>
-12.5791

>  <SCORE.INTER>
-9.97918

>  <SCORE.INTER.CONST>
1

>  <SCORE.INTER.POLAR>
-0.486611

>  <SCORE.INTER.REPUL>
0.00349011

>  <SCORE.INTER.ROT>
3

>  <SCORE.INTER.VDW>
-16.7421

>  <SCORE.INTER.norm>
-0.554399

>  <SCORE.INTRA>
0.879182

>  <SCORE.INTRA.DIHEDRAL>
-0.797235

>  <SCORE.INTRA.DIHEDRAL.0>
5.47211

>  <SCORE.INTRA.POLAR>
0

>  <SCORE.INTRA.POLAR.0>
0

>  <SCORE.INTRA.REPUL>
0

>  <SCORE.INTRA.REPUL.0>
0

>  <SCORE.INTRA.VDW>
1.2778

>  <SCORE.INTRA.VDW.0>
0.722234

>  <SCORE.INTRA.norm>
0.0488434

>  <SCORE.RESTR>
0

>  <SCORE.RESTR.CAVITY>
0

>  <SCORE.RESTR.norm>
0

>  <SCORE.SYSTEM>
-3.47907

>  <SCORE.SYSTEM.CONST>
0

>  <SCORE.SYSTEM.DIHEDRAL>
2.57873

>  <SCORE.SYSTEM.POLAR>
-0.834826

>  <SCORE.SYSTEM.VDW>
-1.93002

>  <SCORE.SYSTEM.norm>
-0.193281

>  <SCORE.heavy>
18

>  <SCORE.norm>
-0.698837

$$$$
FLP.pdb
  rDOCK(R)          3D
libRbt.so/2013.1/901 2013/11/27
 19 20  0  0  0  0  0  0  0  0999 V2000
   25.3813   24.3541   16.5334 C   0  0  0  0  0  0
   25.1930   23.2412   17.3825 C   0  0  0  0  0  0
   24.4194   22.1660   16.9573 C   0  0  0  0  0  0
   23.8375   22.2046   15.6890 C   0  0  0  0  0  0
   24.0307   23.3173   14.8479 C   0  0  0  0  0  0
   24.8045   24.3911   15.2759 C   0  0  0  0  0  0
   24.1787   20.9795   17.8660 C   0  0  0  0  0  0
   22.8758   20.4687   18.0824 C   0  0  0  0  0  0
   22.6882   19.3342   18.9297 C   0  0  0  0  0  0
   23.8310   18.7249   19.5536 C   0  0  0  0  0  0
   25.1032   19.2349   19.3246 C   0  0  0  0  0  0
   25.2874   20.3482   18.4987 C   0  0  0  0  0  0
   23.6755   17.5848   20.5389 C   0  0  0  0  0  0
   23.3568   16.2826   19.8081 C   0  0  0  0  0  0
   22.5434   17.9436   21.5007 C   0  0  0  0  0  0
   21.6685   17.1469   21.7350 O   0  0  0  0  0  0
   22.4905   19.1252   22.0565 O   0  0  0  0  0  0
   26.5447   20.8333   18.3182 F   0  0  0  0  0  0
   23.1610   19.7558   21.8813 H   0  0  0  0  0  0
  1  2  2  0  0  0
  2  3  1  0  0  0
  3  7  1  0  0  0
  4  3  2  0  0  0
  5  4  1  0  0  0
  6  5  2  0  0  0
  6  1  1  0  0  0
  7  8  2  0  0  0
  7 12  1  0  0  0
  8  9  1  0  0  0
  9 10  2  0  0  0
 10 13  1  0  0  0
 11 10  1  0  0  0
 12 11  2  0  0  0
 13 14  1  0  0  0
 15 17  1  0  0  0
 15 13  1  0  0  0
 16 15  2  0  0  0
 17 19  1  0  0  0
 18 12  1  0  0  0
M  END
>  <CHROM.0>
160.50302142,-60.69574898,-142.17359936,172.99389098,175.58165821,-60.37810297

>  <CHROM.1>
130.61055082,75.87865050,-1.34425465,131.31197950,24.00077584,20.35193784
18.59002417,-1.30273961,0.04048524,2.41442863

>  <FORMUL>
      FLP    C15 H13 F1 O2

>  <HET>
 FLP  A 701      18

>  <HETNAM>
     FLP FLURBIPROFEN

>  <Name>
FLP.pdb

>  <RI>
0

>  <Rbt.Current_Directory>
/home/malgorzata/Desktop/rDOCK_IFD/Wyniki/4b_COX2/IFD

>  <Rbt.Executable>
rbdock ($Id: //depot/dev/client3/rdock/2013.1/src/exe/rbdock.cxx#4 $)

>  <Rbt.Library>
libRbt.so (2013.1, Build901 2013/11/27)

>  <Rbt.Parameter_File>
/home/malgorzata/Desktop/rDock_2013.1_src/data/scripts/hard_docking.prm

>  <Rbt.Receptor>
cavity.prm

>  <SCORE>
-19.6418

>  <SCORE.INTER>
-15.1309

>  <SCORE.INTER.CONST>
1

>  <SCORE.INTER.POLAR>
-0.959166

>  <SCORE.INTER.REPUL>
0

>  <SCORE.INTER.ROT>
3

>  <SCORE.INTER.VDW>
-20.2698

>  <SCORE.INTER.norm>
-0.840607

>  <SCORE.INTRA>
-0.989898

>  <SCORE.INTRA.DIHEDRAL>
-1.12576

>  <SCORE.INTRA.DIHEDRAL.0>
5.47211

>  <SCORE.INTRA.POLAR>
0

>  <SCORE.INTRA.POLAR.0>
0

>  <SCORE.INTRA.REPUL>
0

>  <SCORE.INTRA.REPUL.0>
0

>  <SCORE.INTRA.VDW>
-0.427019

>  <SCORE.INTRA.VDW.0>
0.722234

>  <SCORE.INTRA.norm>
-0.0549943

>  <SCORE.RESTR>
0

>  <SCORE.RESTR.CAVITY>
0

>  <SCORE.RESTR.norm>
0

>  <SCORE.SYSTEM>
-3.52095

>  <SCORE.SYSTEM.CONST>
0

>  <SCORE.SYSTEM.DIHEDRAL>
2.4909

>  <SCORE.SYSTEM.POLAR>
-0.805589

>  <SCORE.SYSTEM.VDW>
-2.02739

>  <SCORE.SYSTEM.norm>
-0.195608

>  <SCORE.heavy>
18

>  <SCORE.norm>
-1.09121

$$$$
FLP.pdb
  rDOCK(R)          3D
libRbt.so/2013.1/901 2013/11/27
 19 20  0  0  0  0  0  0  0  0999 V2000
   24.3218   18.5823   18.6217 C   0  0  0  0  0  0
   24.9662   19.6638   17.9815 C   0  0  0  0  0  0
   24.2106   20.6661   17.3814 C   0  0  0  0  0  0
   22.8175   20.5860   17.4221 C   0  0  0  0  0  0
   22.1825   19.5050   18.0631 C   0  0  0  0  0  0
   22.9406   18.5042   18.6620 C   0  0  0  0  0  0
   24.8832   21.8154   16.6616 C   0  0  0  0  0  0
   26.0842   21.6287   15.9350 C   0  0  0  0  0  0
   26.6799   22.7315   15.2500 C   0  0  0  0  0  0
   26.0479   24.0213   15.3092 C   0  0  0  0  0  0
   24.8659   24.1851   16.0212 C   0  0  0  0  0  0
   24.2842   23.1069   16.6957 C   0  0  0  0  0  0
   26.6915   25.2428   14.6856 C   0  0  0  0  0  0
   26.3961   26.4892   15.5165 C   0  0  0  0  0  0
   26.1305   25.4021   13.2730 C   0  0  0  0  0  0
   26.8750   25.5512   12.3357 O   0  0  0  0  0  0
   24.8402   25.4104   13.0654 O   0  0  0  0  0  0
   23.1406   23.3117   17.4019 F   0  0  0  0  0  0
   24.5062   25.5172   12.1964 H   0  0  0  0  0  0
  1  2  2  0  0  0
  2  3  1  0  0  0
  3  7  1  0  0  0
  4  3  2  0  0  0
  5  4  1  0  0  0
  6  5  2  0  0  0
  6  1  1  0  0  0
  7  8  2  0  0  0
  7 12  1  0  0  0
  8  9  1  0  0  0
  9 10  2  0  0  0
 10 13  1  0  0  0
 11 10  1  0  0  0
 12 11  2  0  0  0
 13 14  1  0  0  0
 15 17  1  0  0  0
 15 13  1  0  0  0
 16 15  2  0  0  0
 17 19  1  0  0  0
 18 12  1  0  0  0
M  END
>  <CHROM.0>
-178.83940598,176.34145587,-36.32068221,63.44293775,1.31929411,-60.37810297

>  <CHROM.1>
35.13586250,-145.24536297,179.39141542,-129.82693320,24.89511578,22.70244812
16.05853717,-1.97569197,0.49180229,-0.43382312

>  <FORMUL>
      FLP    C15 H13 F1 O2

>  <HET>
 FLP  A 701      18

>  <HETNAM>
     FLP FLURBIPROFEN

>  <Name>
FLP.pdb

>  <RI>
0

>  <Rbt.Current_Directory>
/home/malgorzata/Desktop/rDOCK_IFD/Wyniki/4b_COX2/IFD

>  <Rbt.Executable>
rbdock ($Id: //depot/dev/client3/rdock/2013.1/src/exe/rbdock.cxx#4 $)

>  <Rbt.Library>
libRbt.so (2013.1, Build901 2013/11/27)

>  <Rbt.Parameter_File>
/home/malgorzata/Desktop/rDock_2013.1_src/data/scripts/hard_docking.prm

>  <Rbt.Receptor>
cavity.prm

>  <SCORE>
-12.6092

>  <SCORE.INTER>
-10.3318

>  <SCORE.INTER.CONST>
1

>  <SCORE.INTER.POLAR>
-0.725057

>  <SCORE.INTER.REPUL>
0

>  <SCORE.INTER.ROT>
3

>  <SCORE.INTER.VDW>
-16.2666

>  <SCORE.INTER.norm>
-0.573989

>  <SCORE.INTRA>
-0.503336

>  <SCORE.INTRA.DIHEDRAL>
-2.3121

>  <SCORE.INTRA.DIHEDRAL.0>
5.47211

>  <SCORE.INTRA.POLAR>
0

>  <SCORE.INTRA.POLAR.0>
0

>  <SCORE.INTRA.REPUL>
0

>  <SCORE.INTRA.REPUL.0>
0

>  <SCORE.INTRA.VDW>
0.652716

>  <SCORE.INTRA.VDW.0>
0.722234

>  <SCORE.INTRA.norm>
-0.0279631

>  <SCORE.RESTR>
0

>  <SCORE.RESTR.CAVITY>
0

>  <SCORE.RESTR.norm>
0

>  <SCORE.SYSTEM>
-1.77407

>  <SCORE.SYSTEM.CONST>
0

>  <SCORE.SYSTEM.DIHEDRAL>
1.94493

>  <SCORE.SYSTEM.POLAR>
-0.223971

>  <SCORE.SYSTEM.VDW>
-1.98503

>  <SCORE.SYSTEM.norm>
-0.0985592

>  <SCORE.heavy>
18

>  <SCORE.norm>
-0.700512

$$$$
FLP.pdb
  rDOCK(R)          3D
libRbt.so/2013.1/901 2013/11/27
 19 20  0  0  0  0  0  0  0  0999 V2000
   25.1255   19.2969   19.0574 C   0  0  0  0  0  0
   25.2982   20.2555   18.0345 C   0  0  0  0  0  0
   24.1925   20.7425   17.3450 C   0  0  0  0  0  0
   22.9208   20.2726   17.6777 C   0  0  0  0  0  0
   22.7567   19.3176   18.6993 C   0  0  0  0  0  0
   23.8642   18.8321   19.3868 C   0  0  0  0  0  0
   24.3608   21.7449   16.2232 C   0  0  0  0  0  0
   25.3646   21.5864   15.2371 C   0  0  0  0  0  0
   25.4809   22.5405   14.1806 C   0  0  0  0  0  0
   24.5724   23.6536   14.1342 C   0  0  0  0  0  0
   23.5887   23.7899   15.1062 C   0  0  0  0  0  0
   23.4769   22.8586   16.1434 C   0  0  0  0  0  0
   24.7176   24.7457   13.0944 C   0  0  0  0  0  0
   24.5091   24.1823   11.6906 C   0  0  0  0  0  0
   26.1205   25.3377   13.2249 C   0  0  0  0  0  0
   26.2776   26.4277   13.7171 O   0  0  0  0  0  0
   27.1625   24.6873   12.7786 O   0  0  0  0  0  0
   22.5174   23.0390   17.0897 F   0  0  0  0  0  0
   28.0074   25.0922   12.7895 H   0  0  0  0  0  0
  1  2  2  0  0  0
  2  3  1  0  0  0
  3  7  1  0  0  0
  4  3  2  0  0  0
  5  4  1  0  0  0
  6  5  2  0  0  0
  6  1  1  0  0  0
  7  8  2  0  0  0
  7 12  1  0  0  0
  8  9  1  0  0  0
  9 10  2  0  0  0
 10 13  1  0  0  0
 11 10  1  0  0  0
 12 11  2  0  0  0
 13 14  1  0  0  0
 15 17  1  0  0  0
 15 13  1  0  0  0
 16 15  2  0  0  0
 17 19  1  0  0  0
 18 12  1  0  0  0
M  END
>  <CHROM.0>
161.33317645,55.60103664,-140.39309375,62.27855253,-2.44919966,-60.37810297

>  <CHROM.1>
44.50673758,63.83276931,174.21936028,-106.12971698,24.58893727,22.51478909
15.64673255,-1.83064056,0.28138905,-0.74140307

>  <FORMUL>
      FLP    C15 H13 F1 O2

>  <HET>
 FLP  A 701      18

>  <HETNAM>
     FLP FLURBIPROFEN

>  <Name>
FLP.pdb

>  <RI>
0

>  <Rbt.Current_Directory>
/home/malgorzata/Desktop/rDOCK_IFD/Wyniki/4b_COX2/IFD

>  <Rbt.Executable>
rbdock ($Id: //depot/dev/client3/rdock/2013.1/src/exe/rbdock.cxx#4 $)

>  <Rbt.Library>
libRbt.so (2013.1, Build901 2013/11/27)

>  <Rbt.Parameter_File>
/home/malgorzata/Desktop/rDock_2013.1_src/data/scripts/hard_docking.prm

>  <Rbt.Receptor>
cavity.prm

>  <SCORE>
-17.4503

>  <SCORE.INTER>
-12.107

>  <SCORE.INTER.CONST>
1

>  <SCORE.INTER.POLAR>
-0.739618

>  <SCORE.INTER.REPUL>
0

>  <SCORE.INTER.ROT>
3

>  <SCORE.INTER.VDW>
-17.9923

>  <SCORE.INTER.norm>
-0.672609

>  <SCORE.INTRA>
-2.07222

>  <SCORE.INTRA.DIHEDRAL>
-1.21839

>  <SCORE.INTRA.DIHEDRAL.0>
5.47211

>  <SCORE.INTRA.POLAR>
0

>  <SCORE.INTRA.POLAR.0>
0

>  <SCORE.INTRA.REPUL>
0

>  <SCORE.INTRA.REPUL.0>
0

>  <SCORE.INTRA.VDW>
-1.46302

>  <SCORE.INTRA.VDW.0>
0.722234

>  <SCORE.INTRA.norm>
-0.115123

>  <SCORE.RESTR>
0

>  <SCORE.RESTR.CAVITY>
0

>  <SCORE.RESTR.norm>
0

>  <SCORE.SYSTEM>
-3.27115

>  <SCORE.SYSTEM.CONST>
0

>  <SCORE.SYSTEM.DIHEDRAL>
2.44887

>  <SCORE.SYSTEM.POLAR>
-0.796108

>  <SCORE.SYSTEM.VDW>
-1.78881

>  <SCORE.SYSTEM.norm>
-0.18173

>  <SCORE.heavy>
18

>  <SCORE.norm>
-0.969462

$$$$
FLP.pdb
  rDOCK(R)          3D
libRbt.so/2013.1/901 2013/11/27
 19 20  0  0  0  0  0  0  0  0999 V2000
   24.3413   18.6840   18.7402 C   0  0  0  0  0  0
   24.9422   19.7537   18.0406 C   0  0  0  0  0  0
   24.1672   20.8275   17.6142 C   0  0  0  0  0  0
   22.7981   20.8303   17.8866 C   0  0  0  0  0  0
   22.2065   19.7605   18.5854 C   0  0  0  0  0  0
   22.9839   18.6881   19.0103 C   0  0  0  0  0  0
   24.7873   21.9669   16.8339 C   0  0  0  0  0  0
   24.0463   22.6865   15.8653 C   0  0  0  0  0  0
   24.6572   23.7700   15.1630 C   0  0  0  0  0  0
   26.0225   24.1151   15.4515 C   0  0  0  0  0  0
   26.7327   23.4027   16.4102 C   0  0  0  0  0  0
   26.1368   22.3390   17.0952 C   0  0  0  0  0  0
   26.7466   25.1880   14.6643 C   0  0  0  0  0  0
   26.4577   26.5694   15.2470 C   0  0  0  0  0  0
   26.2680   25.1134   13.2148 C   0  0  0  0  0  0
   27.0295   24.7854   12.3387 O   0  0  0  0  0  0
   25.0403   25.4328   12.9011 O   0  0  0  0  0  0
   26.8714   21.6501   18.0086 F   0  0  0  0  0  0
   24.7080   25.2344   12.0478 H   0  0  0  0  0  0
  1  2  2  0  0  0
  2  3  1  0  0  0
  3  7  1  0  0  0
  4  3  2  0  0  0
  5  4  1  0  0  0
  6  5  2  0  0  0
  6  1  1  0  0  0
  7  8  2  0  0  0
  7 12  1  0  0  0
  8  9  1  0  0  0
  9 10  2  0  0  0
 10 13  1  0  0  0
 11 10  1  0  0  0
 12 11  2  0  0  0
 13 14  1  0  0  0
 15 17  1  0  0  0
 15 13  1  0  0  0
 16 15  2  0  0  0
 17 19  1  0  0  0
 18 12  1  0  0  0
M  END
>  <CHROM.0>
17.24726180,166.38809554,-140.23704780,-61.40416526,176.98296682,-60.37810297

>  <CHROM.1>
148.75071443,85.06160144,-168.56232850,-113.75807696,25.19122739,22.61008957
16.21354484,-1.91952100,-0.31812586,-0.81226676

>  <FORMUL>
      FLP    C15 H13 F1 O2

>  <HET>
 FLP  A 701      18

>  <HETNAM>
     FLP FLURBIPROFEN

>  <Name>
FLP.pdb

>  <RI>
0

>  <Rbt.Current_Directory>
/home/malgorzata/Desktop/rDOCK_IFD/Wyniki/4b_COX2/IFD

>  <Rbt.Executable>
rbdock ($Id: //depot/dev/client3/rdock/2013.1/src/exe/rbdock.cxx#4 $)

>  <Rbt.Library>
libRbt.so (2013.1, Build901 2013/11/27)

>  <Rbt.Parameter_File>
/home/malgorzata/Desktop/rDock_2013.1_src/data/scripts/hard_docking.prm

>  <Rbt.Receptor>
cavity.prm

>  <SCORE>
-10.2713

>  <SCORE.INTER>
-11.6882

>  <SCORE.INTER.CONST>
1

>  <SCORE.INTER.POLAR>
-1.3838

>  <SCORE.INTER.REPUL>
0

>  <SCORE.INTER.ROT>
3

>  <SCORE.INTER.VDW>
-15.3832

>  <SCORE.INTER.norm>
-0.649342

>  <SCORE.INTRA>
-1.53329

>  <SCORE.INTRA.DIHEDRAL>
-1.67304

>  <SCORE.INTRA.DIHEDRAL.0>
5.47211

>  <SCORE.INTRA.POLAR>
0

>  <SCORE.INTRA.POLAR.0>
0

>  <SCORE.INTRA.REPUL>
0

>  <SCORE.INTRA.REPUL.0>
0

>  <SCORE.INTRA.VDW>
-0.696768

>  <SCORE.INTRA.VDW.0>
0.722234

>  <SCORE.INTRA.norm>
-0.0851826

>  <SCORE.RESTR>
0

>  <SCORE.RESTR.CAVITY>
0

>  <SCORE.RESTR.norm>
0

>  <SCORE.SYSTEM>
2.95018

>  <SCORE.SYSTEM.CONST>
0

>  <SCORE.SYSTEM.DIHEDRAL>
3.16641

>  <SCORE.SYSTEM.REPUL>
0.0927755

>  <SCORE.SYSTEM.VDW>
0.903103

>  <SCORE.SYSTEM.norm>
0.163899

>  <SCORE.heavy>
18

>  <SCORE.norm>
-0.570625

$$$$
FLP.pdb
  rDOCK(R)          3D
libRbt.so/2013.1/901 2013/11/27
 19 20  0  0  0  0  0  0  0  0999 V2000
   25.6524   25.4675   16.4885 C   0  0  0  0  0  0
   25.1215   24.3274   17.1312 C   0  0  0  0  0  0
   25.6120   23.0632   16.8204 C   0  0  0  0  0  0
   26.6285   22.9411   15.8715 C   0  0  0  0  0  0
   27.1532   24.0825   15.2357 C   0  0  0  0  0  0
   26.6605   25.3454   15.5482 C   0  0  0  0  0  0
   25.0325   21.8268   17.4741 C   0  0  0  0  0  0
   25.8543   20.9052   18.1672 C   0  0  0  0  0  0
   25.2705   19.7602   18.7903 C   0  0  0  0  0  0
   23.8497   19.5596   18.7038 C   0  0  0  0  0  0
   23.0572   20.4778   18.0256 C   0  0  0  0  0  0
   23.6285   21.5968   17.4115 C   0  0  0  0  0  0
   23.1955   18.3113   19.2596 C   0  0  0  0  0  0
   23.3482   18.2551   20.7778 C   0  0  0  0  0  0
   23.8668   17.0996   18.6142 C   0  0  0  0  0  0
   23.3249   16.5136   17.7098 O   0  0  0  0  0  0
   25.0186   16.6641   19.0518 O   0  0  0  0  0  0
   22.8238   22.4600   16.7363 F   0  0  0  0  0  0
   25.4212   15.9195   18.6501 H   0  0  0  0  0  0
  1  2  2  0  0  0
  2  3  1  0  0  0
  3  7  1  0  0  0
  4  3  2  0  0  0
  5  4  1  0  0  0
  6  5  2  0  0  0
  6  1  1  0  0  0
  7  8  2  0  0  0
  7 12  1  0  0  0
  8  9  1  0  0  0
  9 10  2  0  0  0
 10 13  1  0  0  0
 11 10  1  0  0  0
 12 11  2  0  0  0
 13 14  1  0  0  0
 15 17  1  0  0  0
 15 13  1  0  0  0
 16 15  2  0  0  0
 17 19  1  0  0  0
 18 12  1  0  0  0
M  END
>  <CHROM.0>
2.17759393,-62.71514360,19.05711157,62.34155359,2.11780305,-60.37810297

>  <CHROM.1>
-124.97864241,65.11377425,179.90012368,-101.48297175,24.66579422,20.92712678
17.67848310,1.27810983,0.28287283,-0.31723807

>  <FORMUL>
      FLP    C15 H13 F1 O2

>  <HET>
 FLP  A 701      18

>  <HETNAM>
     FLP FLURBIPROFEN

>  <Name>
FLP.pdb

>  <RI>
0

>  <Rbt.Current_Directory>
/home/malgorzata/Desktop/rDOCK_IFD/Wyniki/4b_COX2/IFD

>  <Rbt.Executable>
rbdock ($Id: //depot/dev/client3/rdock/2013.1/src/exe/rbdock.cxx#4 $)

>  <Rbt.Library>
libRbt.so (2013.1, Build901 2013/11/27)

>  <Rbt.Parameter_File>
/home/malgorzata/Desktop/rDock_2013.1_src/data/scripts/hard_docking.prm

>  <Rbt.Receptor>
cavity.prm

>  <SCORE>
-16.3038

>  <SCORE.INTER>
-10.7975

>  <SCORE.INTER.CONST>
1

>  <SCORE.INTER.POLAR>
-0.698961

>  <SCORE.INTER.REPUL>
0.192006

>  <SCORE.INTER.ROT>
3

>  <SCORE.INTER.VDW>
-17.781

>  <SCORE.INTER.norm>
-0.59986

>  <SCORE.INTRA>
-1.87377

>  <SCORE.INTRA.DIHEDRAL>
-0.386401

>  <SCORE.INTRA.DIHEDRAL.0>
5.47211

>  <SCORE.INTRA.POLAR>
0

>  <SCORE.INTRA.POLAR.0>
0

>  <SCORE.INTRA.REPUL>
0

>  <SCORE.INTRA.REPUL.0>
0

>  <SCORE.INTRA.VDW>
-1.68056

>  <SCORE.INTRA.VDW.0>
0.722234

>  <SCORE.INTRA.norm>
-0.104098

>  <SCORE.RESTR>
0

>  <SCORE.RESTR.CAVITY>
0

>  <SCORE.RESTR.norm>
0

>  <SCORE.SYSTEM>
-3.63257

>  <SCORE.SYSTEM.CONST>
0

>  <SCORE.SYSTEM.DIHEDRAL>
0.516831

>  <SCORE.SYSTEM.POLAR>
-0.859767

>  <SCORE.SYSTEM.VDW>
-0.967773

>  <SCORE.SYSTEM.norm>
-0.201809

>  <SCORE.heavy>
18

>  <SCORE.norm>
-0.905767

$$$$
