FLP.pdb
  rDOCK(R)          3D
libRbt.so/2013.1/901 2013/11/27
 19 20  0  0  0  0  0  0  0  0999 V2000
   23.2764   17.7998   18.0936 C   0  0  0  0  0  0
   23.4895   18.6021   16.9509 C   0  0  0  0  0  0
   23.5181   19.9878   17.0704 C   0  0  0  0  0  0
   23.3344   20.5672   18.3271 C   0  0  0  0  0  0
   23.1234   19.7607   19.4618 C   0  0  0  0  0  0
   23.0950   18.3753   19.3392 C   0  0  0  0  0  0
   23.7117   20.8651   15.8520 C   0  0  0  0  0  0
   24.6501   20.5321   14.8452 C   0  0  0  0  0  0
   24.7912   21.3719   13.6985 C   0  0  0  0  0  0
   23.9742   22.5491   13.5834 C   0  0  0  0  0  0
   23.0534   22.8570   14.5775 C   0  0  0  0  0  0
   22.9176   22.0377   15.7026 C   0  0  0  0  0  0
   24.1560   23.5248   12.4388 C   0  0  0  0  0  0
   23.7994   22.8655   11.1087 C   0  0  0  0  0  0
   25.6159   23.9768   12.4318 C   0  0  0  0  0  0
   26.3347   23.6981   11.5041 O   0  0  0  0  0  0
   26.1124   24.6421   13.4411 O   0  0  0  0  0  0
   22.0232   22.3850   16.6659 F   0  0  0  0  0  0
   25.5665   24.8651   14.1693 H   0  0  0  0  0  0
  1  2  2  0  0  0
  2  3  1  0  0  0
  3  7  1  0  0  0
  4  3  2  0  0  0
  5  4  1  0  0  0
  6  5  2  0  0  0
  6  1  1  0  0  0
  7  8  2  0  0  0
  7 12  1  0  0  0
  8  9  1  0  0  0
  9 10  2  0  0  0
 10 13  1  0  0  0
 11 10  1  0  0  0
 12 11  2  0  0  0
 13 14  1  0  0  0
 15 17  1  0  0  0
 15 13  1  0  0  0
 16 15  2  0  0  0
 17 19  1  0  0  0
 18 12  1  0  0  0
M  END
>  <CHROM.0>
166.74557360,-62.38151975,-141.17672076,-58.91763685,3.31181864,-60.37810297

>  <CHROM.1>
-41.73657960,65.30931137,-1.52283001,115.07786901,23.95722561,21.57200970
15.21645603,-2.03600294,0.95186860,-0.55678073

>  <FORMUL>
      FLP    C15 H13 F1 O2

>  <HET>
 FLP  A 701      18

>  <HETNAM>
     FLP FLURBIPROFEN

>  <Name>
FLP.pdb

>  <RI>
0

>  <Rbt.Current_Directory>
/home/malgorzata/Desktop/rDOCK_IFD/test4/IFD

>  <Rbt.Executable>
rbdock ($Id: //depot/dev/client3/rdock/2013.1/src/exe/rbdock.cxx#4 $)

>  <Rbt.Library>
libRbt.so (2013.1, Build901 2013/11/27)

>  <Rbt.Parameter_File>
/home/malgorzata/Desktop/rDock_2013.1_src/data/scripts/hard_docking.prm

>  <Rbt.Receptor>
cavity.prm

>  <SCORE>
-11.6825

>  <SCORE.INTER>
-10.5649

>  <SCORE.INTER.CONST>
1

>  <SCORE.INTER.POLAR>
0

>  <SCORE.INTER.REPUL>
0

>  <SCORE.INTER.ROT>
3

>  <SCORE.INTER.VDW>
-18.9649

>  <SCORE.INTER.norm>
-0.586938

>  <SCORE.INTRA>
-1.11147

>  <SCORE.INTRA.DIHEDRAL>
-1.82308

>  <SCORE.INTRA.DIHEDRAL.0>
5.47211

>  <SCORE.INTRA.POLAR>
0

>  <SCORE.INTRA.POLAR.0>
0

>  <SCORE.INTRA.REPUL>
0

>  <SCORE.INTRA.REPUL.0>
0

>  <SCORE.INTRA.VDW>
-0.199932

>  <SCORE.INTRA.VDW.0>
0.722234

>  <SCORE.INTRA.norm>
-0.0617483

>  <SCORE.RESTR>
0

>  <SCORE.RESTR.CAVITY>
0

>  <SCORE.RESTR.norm>
0

>  <SCORE.SYSTEM>
-0.00616673

>  <SCORE.SYSTEM.CONST>
0

>  <SCORE.SYSTEM.DIHEDRAL>
2.05949

>  <SCORE.SYSTEM.REPUL>
0.0587512

>  <SCORE.SYSTEM.VDW>
-1.32967

>  <SCORE.SYSTEM.norm>
-0.000342596

>  <SCORE.heavy>
18

>  <SCORE.norm>
-0.649029

$$$$
FLP.pdb
  rDOCK(R)          3D
libRbt.so/2013.1/901 2013/11/27
 19 20  0  0  0  0  0  0  0  0999 V2000
   23.6367   23.0786   10.2015 C   0  0  0  0  0  0
   23.5980   22.3705   11.4230 C   0  0  0  0  0  0
   24.2152   22.8989   12.5522 C   0  0  0  0  0  0
   24.8675   24.1295   12.4592 C   0  0  0  0  0  0
   24.9010   24.8299   11.2381 C   0  0  0  0  0  0
   24.2833   24.2989   10.1105 C   0  0  0  0  0  0
   24.2131   22.1390   13.8615 C   0  0  0  0  0  0
   24.7303   20.8239   13.9516 C   0  0  0  0  0  0
   24.7318   20.1446   15.2081 C   0  0  0  0  0  0
   24.2050   20.8098   16.3684 C   0  0  0  0  0  0
   23.7077   22.1031   16.2633 C   0  0  0  0  0  0
   23.7020   22.7674   15.0327 C   0  0  0  0  0  0
   24.0910   20.0973   17.7005 C   0  0  0  0  0  0
   24.4436   18.6193   17.5514 C   0  0  0  0  0  0
   22.6538   20.2519   18.1966 C   0  0  0  0  0  0
   21.7464   20.3594   17.4090 O   0  0  0  0  0  0
   22.3920   20.3010   19.4760 O   0  0  0  0  0  0
   23.1847   24.0229   14.9646 F   0  0  0  0  0  0
   21.5256   20.5039   19.7695 H   0  0  0  0  0  0
  1  2  2  0  0  0
  2  3  1  0  0  0
  3  7  1  0  0  0
  4  3  2  0  0  0
  5  4  1  0  0  0
  6  5  2  0  0  0
  6  1  1  0  0  0
  7  8  2  0  0  0
  7 12  1  0  0  0
  8  9  1  0  0  0
  9 10  2  0  0  0
 10 13  1  0  0  0
 11 10  1  0  0  0
 12 11  2  0  0  0
 13 14  1  0  0  0
 15 17  1  0  0  0
 15 13  1  0  0  0
 16 15  2  0  0  0
 17 19  1  0  0  0
 18 12  1  0  0  0
M  END
>  <CHROM.0>
0.32135875,179.79618512,7.58639849,59.61441430,3.30955474,-60.37810297

>  <CHROM.1>
56.50899632,-6.58673380,172.26055058,29.46170833,23.78679894,21.87520685
14.79823442,-1.27317654,-1.06450278,2.33567669

>  <FORMUL>
      FLP    C15 H13 F1 O2

>  <HET>
 FLP  A 701      18

>  <HETNAM>
     FLP FLURBIPROFEN

>  <Name>
FLP.pdb

>  <RI>
0

>  <Rbt.Current_Directory>
/home/malgorzata/Desktop/rDOCK_IFD/test4/IFD

>  <Rbt.Executable>
rbdock ($Id: //depot/dev/client3/rdock/2013.1/src/exe/rbdock.cxx#4 $)

>  <Rbt.Library>
libRbt.so (2013.1, Build901 2013/11/27)

>  <Rbt.Parameter_File>
/home/malgorzata/Desktop/rDock_2013.1_src/data/scripts/hard_docking.prm

>  <Rbt.Receptor>
cavity.prm

>  <SCORE>
-16.219

>  <SCORE.INTER>
-14.3379

>  <SCORE.INTER.CONST>
1

>  <SCORE.INTER.POLAR>
-0.603866

>  <SCORE.INTER.REPUL>
0

>  <SCORE.INTER.ROT>
3

>  <SCORE.INTER.VDW>
-20.6847

>  <SCORE.INTER.norm>
-0.796547

>  <SCORE.INTRA>
1.16923

>  <SCORE.INTRA.DIHEDRAL>
0.483275

>  <SCORE.INTRA.DIHEDRAL.0>
5.47211

>  <SCORE.INTRA.POLAR>
0

>  <SCORE.INTRA.POLAR.0>
0

>  <SCORE.INTRA.REPUL>
0

>  <SCORE.INTRA.REPUL.0>
0

>  <SCORE.INTRA.VDW>
0.927591

>  <SCORE.INTRA.VDW.0>
0.722234

>  <SCORE.INTRA.norm>
0.0649571

>  <SCORE.RESTR>
0

>  <SCORE.RESTR.CAVITY>
0

>  <SCORE.RESTR.norm>
0

>  <SCORE.SYSTEM>
-3.05035

>  <SCORE.SYSTEM.CONST>
0

>  <SCORE.SYSTEM.DIHEDRAL>
0.076586

>  <SCORE.SYSTEM.POLAR>
-0.362472

>  <SCORE.SYSTEM.VDW>
-1.85624

>  <SCORE.SYSTEM.norm>
-0.169464

>  <SCORE.heavy>
18

>  <SCORE.norm>
-0.901054

$$$$
FLP.pdb
  rDOCK(R)          3D
libRbt.so/2013.1/901 2013/11/27
 19 20  0  0  0  0  0  0  0  0999 V2000
   25.4111   24.8718   16.6517 C   0  0  0  0  0  0
   25.0739   23.5874   17.1328 C   0  0  0  0  0  0
   25.7985   22.4762   16.7139 C   0  0  0  0  0  0
   26.8550   22.6498   15.8182 C   0  0  0  0  0  0
   27.1858   23.9336   15.3437 C   0  0  0  0  0  0
   26.4592   25.0429   15.7641 C   0  0  0  0  0  0
   25.4306   21.0879   17.1925 C   0  0  0  0  0  0
   25.6224   20.6976   18.5401 C   0  0  0  0  0  0
   25.2440   19.3864   18.9616 C   0  0  0  0  0  0
   24.6714   18.4777   18.0061 C   0  0  0  0  0  0
   24.4838   18.8798   16.6892 C   0  0  0  0  0  0
   24.8579   20.1619   16.2746 C   0  0  0  0  0  0
   24.3476   17.0453   18.3779 C   0  0  0  0  0  0
   23.1833   16.9962   19.3645 C   0  0  0  0  0  0
   25.5976   16.4258   19.0018 C   0  0  0  0  0  0
   25.5033   15.7000   19.9607 O   0  0  0  0  0  0
   26.7842   16.6974   18.5265 O   0  0  0  0  0  0
   24.6814   20.5104   14.9724 F   0  0  0  0  0  0
   26.8769   17.2971   17.8126 H   0  0  0  0  0  0
  1  2  2  0  0  0
  2  3  1  0  0  0
  3  7  1  0  0  0
  4  3  2  0  0  0
  5  4  1  0  0  0
  6  5  2  0  0  0
  6  1  1  0  0  0
  7  8  2  0  0  0
  7 12  1  0  0  0
  8  9  1  0  0  0
  9 10  2  0  0  0
 10 13  1  0  0  0
 11 10  1  0  0  0
 12 11  2  0  0  0
 13 14  1  0  0  0
 15 17  1  0  0  0
 15 13  1  0  0  0
 16 15  2  0  0  0
 17 19  1  0  0  0
 18 12  1  0  0  0
M  END
>  <CHROM.0>
-1.86362273,61.34074602,7.46383904,59.75325211,-173.35251931,-60.37810297

>  <CHROM.1>
-69.09764530,68.86221763,1.84269934,139.55662199,25.39054019,20.13608402
17.40763339,-1.36223058,0.89110602,2.57903593

>  <FORMUL>
      FLP    C15 H13 F1 O2

>  <HET>
 FLP  A 701      18

>  <HETNAM>
     FLP FLURBIPROFEN

>  <Name>
FLP.pdb

>  <RI>
0

>  <Rbt.Current_Directory>
/home/malgorzata/Desktop/rDOCK_IFD/test4/IFD

>  <Rbt.Executable>
rbdock ($Id: //depot/dev/client3/rdock/2013.1/src/exe/rbdock.cxx#4 $)

>  <Rbt.Library>
libRbt.so (2013.1, Build901 2013/11/27)

>  <Rbt.Parameter_File>
/home/malgorzata/Desktop/rDock_2013.1_src/data/scripts/hard_docking.prm

>  <Rbt.Receptor>
cavity.prm

>  <SCORE>
-11.8485

>  <SCORE.INTER>
-8.46324

>  <SCORE.INTER.CONST>
1

>  <SCORE.INTER.POLAR>
-0.434623

>  <SCORE.INTER.REPUL>
0

>  <SCORE.INTER.ROT>
3

>  <SCORE.INTER.VDW>
-15.3855

>  <SCORE.INTER.norm>
-0.47018

>  <SCORE.INTRA>
-0.556925

>  <SCORE.INTRA.DIHEDRAL>
0.621783

>  <SCORE.INTRA.DIHEDRAL.0>
5.47211

>  <SCORE.INTRA.POLAR>
0

>  <SCORE.INTRA.POLAR.0>
0

>  <SCORE.INTRA.REPUL>
0

>  <SCORE.INTRA.REPUL.0>
0

>  <SCORE.INTRA.VDW>
-0.867816

>  <SCORE.INTRA.VDW.0>
0.722234

>  <SCORE.INTRA.norm>
-0.0309403

>  <SCORE.RESTR>
0

>  <SCORE.RESTR.CAVITY>
0

>  <SCORE.RESTR.norm>
0

>  <SCORE.SYSTEM>
-2.82833

>  <SCORE.SYSTEM.CONST>
0

>  <SCORE.SYSTEM.DIHEDRAL>
0.133039

>  <SCORE.SYSTEM.POLAR>
-0.362004

>  <SCORE.SYSTEM.VDW>
-1.66404

>  <SCORE.SYSTEM.norm>
-0.15713

>  <SCORE.heavy>
18

>  <SCORE.norm>
-0.65825

$$$$
FLP.pdb
  rDOCK(R)          3D
libRbt.so/2013.1/901 2013/11/27
 19 20  0  0  0  0  0  0  0  0999 V2000
   23.7903   22.7900   10.9991 C   0  0  0  0  0  0
   24.3005   22.2006   12.1769 C   0  0  0  0  0  0
   25.1180   22.9398   13.0258 C   0  0  0  0  0  0
   25.4230   24.2619   12.6974 C   0  0  0  0  0  0
   24.9098   24.8427   11.5219 C   0  0  0  0  0  0
   24.0929   24.1010   10.6748 C   0  0  0  0  0  0
   25.7014   22.3149   14.2751 C   0  0  0  0  0  0
   26.9261   22.7676   14.8231 C   0  0  0  0  0  0
   27.4363   22.1690   16.0154 C   0  0  0  0  0  0
   26.6948   21.1102   16.6443 C   0  0  0  0  0  0
   25.4911   20.6831   16.0968 C   0  0  0  0  0  0
   24.9930   21.2656   14.9271 C   0  0  0  0  0  0
   27.2414   20.3752   17.8510 C   0  0  0  0  0  0
   27.8038   21.3617   18.8718 C   0  0  0  0  0  0
   28.3394   19.4279   17.3688 C   0  0  0  0  0  0
   28.1741   18.2337   17.4098 O   0  0  0  0  0  0
   29.4804   19.8955   16.9360 O   0  0  0  0  0  0
   23.8242   20.8043   14.4080 F   0  0  0  0  0  0
   29.6274   20.8205   16.9083 H   0  0  0  0  0  0
  1  2  2  0  0  0
  2  3  1  0  0  0
  3  7  1  0  0  0
  4  3  2  0  0  0
  5  4  1  0  0  0
  6  5  2  0  0  0
  6  1  1  0  0  0
  7  8  2  0  0  0
  7 12  1  0  0  0
  8  9  1  0  0  0
  9 10  2  0  0  0
 10 13  1  0  0  0
 11 10  1  0  0  0
 12 11  2  0  0  0
 13 14  1  0  0  0
 15 17  1  0  0  0
 15 13  1  0  0  0
 16 15  2  0  0  0
 17 19  1  0  0  0
 18 12  1  0  0  0
M  END
>  <CHROM.0>
-177.86479659,179.04763364,7.27790449,-56.90485214,4.48191256,-60.37810297

>  <CHROM.1>
152.03899881,45.92204204,-0.82418555,-111.59224017,26.13487983,21.66364388
14.89861192,2.19184011,-0.60907093,-0.63476955

>  <FORMUL>
      FLP    C15 H13 F1 O2

>  <HET>
 FLP  A 701      18

>  <HETNAM>
     FLP FLURBIPROFEN

>  <Name>
FLP.pdb

>  <RI>
0

>  <Rbt.Current_Directory>
/home/malgorzata/Desktop/rDOCK_IFD/test4/IFD

>  <Rbt.Executable>
rbdock ($Id: //depot/dev/client3/rdock/2013.1/src/exe/rbdock.cxx#4 $)

>  <Rbt.Library>
libRbt.so (2013.1, Build901 2013/11/27)

>  <Rbt.Parameter_File>
/home/malgorzata/Desktop/rDock_2013.1_src/data/scripts/hard_docking.prm

>  <Rbt.Receptor>
cavity.prm

>  <SCORE>
-13.5902

>  <SCORE.INTER>
-10.6426

>  <SCORE.INTER.CONST>
1

>  <SCORE.INTER.POLAR>
-0.421642

>  <SCORE.INTER.REPUL>
0

>  <SCORE.INTER.ROT>
3

>  <SCORE.INTER.VDW>
-17.6091

>  <SCORE.INTER.norm>
-0.591258

>  <SCORE.INTRA>
-1.67737

>  <SCORE.INTRA.DIHEDRAL>
-2.78603

>  <SCORE.INTRA.DIHEDRAL.0>
5.47211

>  <SCORE.INTRA.POLAR>
0

>  <SCORE.INTRA.POLAR.0>
0

>  <SCORE.INTRA.REPUL>
0

>  <SCORE.INTRA.REPUL.0>
0

>  <SCORE.INTRA.VDW>
-0.284355

>  <SCORE.INTRA.VDW.0>
0.722234

>  <SCORE.INTRA.norm>
-0.0931872

>  <SCORE.RESTR>
0

>  <SCORE.RESTR.CAVITY>
0

>  <SCORE.RESTR.norm>
0

>  <SCORE.SYSTEM>
-1.27016

>  <SCORE.SYSTEM.CONST>
0

>  <SCORE.SYSTEM.DIHEDRAL>
0.141897

>  <SCORE.SYSTEM.REPUL>
0.0393265

>  <SCORE.SYSTEM.VDW>
-1.53774

>  <SCORE.SYSTEM.norm>
-0.0705643

>  <SCORE.heavy>
18

>  <SCORE.norm>
-0.755009

$$$$
FLP.pdb
  rDOCK(R)          3D
libRbt.so/2013.1/901 2013/11/27
 19 20  0  0  0  0  0  0  0  0999 V2000
   26.2015   26.0581   15.9252 C   0  0  0  0  0  0
   25.5298   24.9615   16.5093 C   0  0  0  0  0  0
   25.7397   23.6767   16.0186 C   0  0  0  0  0  0
   26.6174   23.4908   14.9491 C   0  0  0  0  0  0
   27.2840   24.5890   14.3727 C   0  0  0  0  0  0
   27.0718   25.8726   14.8653 C   0  0  0  0  0  0
   25.0035   22.4934   16.6097 C   0  0  0  0  0  0
   23.6093   22.5393   16.8534 C   0  0  0  0  0  0
   22.9434   21.3964   17.3923 C   0  0  0  0  0  0
   23.7028   20.2104   17.6809 C   0  0  0  0  0  0
   25.0691   20.1804   17.4289 C   0  0  0  0  0  0
   25.7226   21.3004   16.9053 C   0  0  0  0  0  0
   23.0637   19.0087   18.3462 C   0  0  0  0  0  0
   22.3668   18.1288   17.3111 C   0  0  0  0  0  0
   22.0541   19.5197   19.3733 C   0  0  0  0  0  0
   22.3348   19.5364   20.5464 O   0  0  0  0  0  0
   20.8658   19.9151   19.0001 O   0  0  0  0  0  0
   27.0646   21.2412   16.6952 F   0  0  0  0  0  0
   20.2902   20.3186   19.6198 H   0  0  0  0  0  0
  1  2  2  0  0  0
  2  3  1  0  0  0
  3  7  1  0  0  0
  4  3  2  0  0  0
  5  4  1  0  0  0
  6  5  2  0  0  0
  6  1  1  0  0  0
  7  8  2  0  0  0
  7 12  1  0  0  0
  8  9  1  0  0  0
  9 10  2  0  0  0
 10 13  1  0  0  0
 11 10  1  0  0  0
 12 11  2  0  0  0
 13 14  1  0  0  0
 15 17  1  0  0  0
 15 13  1  0  0  0
 16 15  2  0  0  0
 17 19  1  0  0  0
 18 12  1  0  0  0
M  END
>  <CHROM.0>
3.61696440,62.02311163,6.93766168,-57.83565930,4.36102303,-60.37810297

>  <CHROM.1>
46.50560300,83.92358970,-172.90894848,-101.39232446,24.52451476,21.79831962
17.10879091,0.85056743,0.52392022,-0.16306742

>  <FORMUL>
      FLP    C15 H13 F1 O2

>  <HET>
 FLP  A 701      18

>  <HETNAM>
     FLP FLURBIPROFEN

>  <Name>
FLP.pdb

>  <RI>
0

>  <Rbt.Current_Directory>
/home/malgorzata/Desktop/rDOCK_IFD/test4/IFD

>  <Rbt.Executable>
rbdock ($Id: //depot/dev/client3/rdock/2013.1/src/exe/rbdock.cxx#4 $)

>  <Rbt.Library>
libRbt.so (2013.1, Build901 2013/11/27)

>  <Rbt.Parameter_File>
/home/malgorzata/Desktop/rDock_2013.1_src/data/scripts/hard_docking.prm

>  <Rbt.Receptor>
cavity.prm

>  <SCORE>
-15.418

>  <SCORE.INTER>
-12.3221

>  <SCORE.INTER.CONST>
1

>  <SCORE.INTER.POLAR>
-0.872516

>  <SCORE.INTER.REPUL>
0

>  <SCORE.INTER.ROT>
3

>  <SCORE.INTER.VDW>
-17.7556

>  <SCORE.INTER.norm>
-0.684561

>  <SCORE.INTRA>
-1.68648

>  <SCORE.INTRA.DIHEDRAL>
-0.703668

>  <SCORE.INTRA.DIHEDRAL.0>
5.47211

>  <SCORE.INTRA.POLAR>
0

>  <SCORE.INTRA.POLAR.0>
0

>  <SCORE.INTRA.REPUL>
0

>  <SCORE.INTRA.REPUL.0>
0

>  <SCORE.INTRA.VDW>
-1.33465

>  <SCORE.INTRA.VDW.0>
0.722234

>  <SCORE.INTRA.norm>
-0.0936935

>  <SCORE.RESTR>
0

>  <SCORE.RESTR.CAVITY>
0

>  <SCORE.RESTR.norm>
0

>  <SCORE.SYSTEM>
-1.40938

>  <SCORE.SYSTEM.CONST>
0

>  <SCORE.SYSTEM.DIHEDRAL>
0.139612

>  <SCORE.SYSTEM.REPUL>
0.0440886

>  <SCORE.SYSTEM.VDW>
-1.69963

>  <SCORE.SYSTEM.norm>
-0.0782988

>  <SCORE.heavy>
18

>  <SCORE.norm>
-0.856554

$$$$
FLP.pdb
  rDOCK(R)          3D
libRbt.so/2013.1/901 2013/11/27
 19 20  0  0  0  0  0  0  0  0999 V2000
   25.2848   22.5884   13.0066 C   0  0  0  0  0  0
   25.8185   21.9969   14.1728 C   0  0  0  0  0  0
   26.4289   22.7915   15.1379 C   0  0  0  0  0  0
   26.5045   24.1708   14.9366 C   0  0  0  0  0  0
   25.9693   24.7532   13.7717 C   0  0  0  0  0  0
   25.3598   23.9560   12.8083 C   0  0  0  0  0  0
   27.0363   22.1719   16.3784 C   0  0  0  0  0  0
   28.4259   21.9152   16.4696 C   0  0  0  0  0  0
   28.9678   21.3492   17.6638 C   0  0  0  0  0  0
   28.0896   21.0468   18.7609 C   0  0  0  0  0  0
   26.7294   21.3117   18.6569 C   0  0  0  0  0  0
   26.1973   21.8619   17.4865 C   0  0  0  0  0  0
   28.5979   20.3537   20.0084 C   0  0  0  0  0  0
   29.8376   21.0620   20.5495 C   0  0  0  0  0  0
   28.9311   18.9079   19.6420 C   0  0  0  0  0  0
   28.3134   17.9971   20.1361 O   0  0  0  0  0  0
   29.9066   18.6377   18.8155 O   0  0  0  0  0  0
   24.8580   22.0841   17.4132 F   0  0  0  0  0  0
   30.3985   19.3345   18.4275 H   0  0  0  0  0  0
  1  2  2  0  0  0
  2  3  1  0  0  0
  3  7  1  0  0  0
  4  3  2  0  0  0
  5  4  1  0  0  0
  6  5  2  0  0  0
  6  1  1  0  0  0
  7  8  2  0  0  0
  7 12  1  0  0  0
  8  9  1  0  0  0
  9 10  2  0  0  0
 10 13  1  0  0  0
 11 10  1  0  0  0
 12 11  2  0  0  0
 13 14  1  0  0  0
 15 17  1  0  0  0
 15 13  1  0  0  0
 16 15  2  0  0  0
 17 19  1  0  0  0
 18 12  1  0  0  0
M  END
>  <CHROM.0>
2.60075854,-62.87195092,12.43513726,59.78722057,12.60245255,-60.37810297

>  <CHROM.1>
98.28599522,50.73606271,-1.24183659,-115.62552932,27.30973554,21.53128407
17.08591271,-2.01945204,-0.12932988,2.11310355

>  <FORMUL>
      FLP    C15 H13 F1 O2

>  <HET>
 FLP  A 701      18

>  <HETNAM>
     FLP FLURBIPROFEN

>  <Name>
FLP.pdb

>  <RI>
0

>  <Rbt.Current_Directory>
/home/malgorzata/Desktop/rDOCK_IFD/test4/IFD

>  <Rbt.Executable>
rbdock ($Id: //depot/dev/client3/rdock/2013.1/src/exe/rbdock.cxx#4 $)

>  <Rbt.Library>
libRbt.so (2013.1, Build901 2013/11/27)

>  <Rbt.Parameter_File>
/home/malgorzata/Desktop/rDock_2013.1_src/data/scripts/hard_docking.prm

>  <Rbt.Receptor>
cavity.prm

>  <SCORE>
-14.7033

>  <SCORE.INTER>
-10.457

>  <SCORE.INTER.CONST>
1

>  <SCORE.INTER.POLAR>
-0.663325

>  <SCORE.INTER.REPUL>
0

>  <SCORE.INTER.ROT>
3

>  <SCORE.INTER.VDW>
-16.6017

>  <SCORE.INTER.norm>
-0.580943

>  <SCORE.INTRA>
-1.31085

>  <SCORE.INTRA.DIHEDRAL>
0.799248

>  <SCORE.INTRA.DIHEDRAL.0>
5.47211

>  <SCORE.INTRA.POLAR>
0

>  <SCORE.INTRA.POLAR.0>
0

>  <SCORE.INTRA.REPUL>
0

>  <SCORE.INTRA.REPUL.0>
0

>  <SCORE.INTRA.VDW>
-1.71048

>  <SCORE.INTRA.VDW.0>
0.722234

>  <SCORE.INTRA.norm>
-0.0728253

>  <SCORE.RESTR>
0

>  <SCORE.RESTR.CAVITY>
0

>  <SCORE.RESTR.norm>
0

>  <SCORE.SYSTEM>
-2.93548

>  <SCORE.SYSTEM.CONST>
0

>  <SCORE.SYSTEM.DIHEDRAL>
0.451721

>  <SCORE.SYSTEM.POLAR>
-0.361887

>  <SCORE.SYSTEM.VDW>
-1.93093

>  <SCORE.SYSTEM.norm>
-0.163082

>  <SCORE.heavy>
18

>  <SCORE.norm>
-0.816851

$$$$
FLP.pdb
  rDOCK(R)          3D
libRbt.so/2013.1/901 2013/11/27
 19 20  0  0  0  0  0  0  0  0999 V2000
   24.1465   22.9721   10.4115 C   0  0  0  0  0  0
   23.9335   22.2222   11.5892 C   0  0  0  0  0  0
   24.2226   22.7805   12.8302 C   0  0  0  0  0  0
   24.7221   24.0827   12.8918 C   0  0  0  0  0  0
   24.9308   24.8243   11.7133 C   0  0  0  0  0  0
   24.6412   24.2632   10.4738 C   0  0  0  0  0  0
   24.0326   21.9805   14.1012 C   0  0  0  0  0  0
   24.6851   20.7389   14.2954 C   0  0  0  0  0  0
   24.4995   20.0211   15.5163 C   0  0  0  0  0  0
   23.6483   20.5728   16.5348 C   0  0  0  0  0  0
   23.0213   21.7960   16.3303 C   0  0  0  0  0  0
   23.1989   22.4974   15.1336 C   0  0  0  0  0  0
   23.3389   19.8049   17.8035 C   0  0  0  0  0  0
   24.6275   19.4177   18.5252 C   0  0  0  0  0  0
   22.5512   18.5536   17.4172 C   0  0  0  0  0  0
   21.3953   18.4377   17.7419 O   0  0  0  0  0  0
   23.1254   17.5815   16.7590 O   0  0  0  0  0  0
   22.5494   23.6792   14.9605 F   0  0  0  0  0  0
   24.0245   17.6543   16.5056 H   0  0  0  0  0  0
  1  2  2  0  0  0
  2  3  1  0  0  0
  3  7  1  0  0  0
  4  3  2  0  0  0
  5  4  1  0  0  0
  6  5  2  0  0  0
  6  1  1  0  0  0
  7  8  2  0  0  0
  7 12  1  0  0  0
  8  9  1  0  0  0
  9 10  2  0  0  0
 10 13  1  0  0  0
 11 10  1  0  0  0
 12 11  2  0  0  0
 13 14  1  0  0  0
 15 17  1  0  0  0
 15 13  1  0  0  0
 16 15  2  0  0  0
 17 19  1  0  0  0
 18 12  1  0  0  0
M  END
>  <CHROM.0>
1.67409507,62.91223441,6.90595535,-178.89241692,4.45885889,-60.37810297

>  <CHROM.1>
56.99406388,56.17378765,-1.11628981,-112.49374619,23.68489562,21.39844944
14.82012175,-0.96985800,-1.26365089,2.84186678

>  <FORMUL>
      FLP    C15 H13 F1 O2

>  <HET>
 FLP  A 701      18

>  <HETNAM>
     FLP FLURBIPROFEN

>  <Name>
FLP.pdb

>  <RI>
0

>  <Rbt.Current_Directory>
/home/malgorzata/Desktop/rDOCK_IFD/test4/IFD

>  <Rbt.Executable>
rbdock ($Id: //depot/dev/client3/rdock/2013.1/src/exe/rbdock.cxx#4 $)

>  <Rbt.Library>
libRbt.so (2013.1, Build901 2013/11/27)

>  <Rbt.Parameter_File>
/home/malgorzata/Desktop/rDock_2013.1_src/data/scripts/hard_docking.prm

>  <Rbt.Receptor>
cavity.prm

>  <SCORE>
-16.8628

>  <SCORE.INTER>
-12.9488

>  <SCORE.INTER.CONST>
1

>  <SCORE.INTER.POLAR>
-0.395579

>  <SCORE.INTER.REPUL>
0.00176841

>  <SCORE.INTER.ROT>
3

>  <SCORE.INTER.VDW>
-20.0127

>  <SCORE.INTER.norm>
-0.71938

>  <SCORE.INTRA>
-1.79855

>  <SCORE.INTRA.DIHEDRAL>
-0.487353

>  <SCORE.INTRA.DIHEDRAL.0>
5.47211

>  <SCORE.INTRA.POLAR>
0

>  <SCORE.INTRA.POLAR.0>
0

>  <SCORE.INTRA.REPUL>
0

>  <SCORE.INTRA.REPUL.0>
0

>  <SCORE.INTRA.VDW>
-1.55488

>  <SCORE.INTRA.VDW.0>
0.722234

>  <SCORE.INTRA.norm>
-0.0999196

>  <SCORE.RESTR>
0

>  <SCORE.RESTR.CAVITY>
0

>  <SCORE.RESTR.norm>
0

>  <SCORE.SYSTEM>
-2.11539

>  <SCORE.SYSTEM.CONST>
0

>  <SCORE.SYSTEM.DIHEDRAL>
0.129082

>  <SCORE.SYSTEM.VDW>
-2.17993

>  <SCORE.SYSTEM.norm>
-0.117522

>  <SCORE.heavy>
18

>  <SCORE.norm>
-0.936821

$$$$
FLP.pdb
  rDOCK(R)          3D
libRbt.so/2013.1/901 2013/11/27
 19 20  0  0  0  0  0  0  0  0999 V2000
   27.1947   23.5858   14.2619 C   0  0  0  0  0  0
   27.0382   22.6878   15.3409 C   0  0  0  0  0  0
   26.0309   21.7289   15.3061 C   0  0  0  0  0  0
   25.1850   21.6691   14.1971 C   0  0  0  0  0  0
   25.3481   22.5672   13.1250 C   0  0  0  0  0  0
   26.3560   23.5253   13.1628 C   0  0  0  0  0  0
   25.8263   20.7799   16.4676 C   0  0  0  0  0  0
   26.2670   21.1066   17.7731 C   0  0  0  0  0  0
   26.0382   20.1962   18.8497 C   0  0  0  0  0  0
   25.3605   18.9553   18.5902 C   0  0  0  0  0  0
   24.9286   18.6540   17.3043 C   0  0  0  0  0  0
   25.1560   19.5427   16.2488 C   0  0  0  0  0  0
   25.1833   17.9131   19.6753 C   0  0  0  0  0  0
   25.8722   16.6077   19.2843 C   0  0  0  0  0  0
   23.6848   17.6842   19.8692 C   0  0  0  0  0  0
   22.8839   18.3409   19.2509 O   0  0  0  0  0  0
   23.2514   16.7988   20.7271 O   0  0  0  0  0  0
   24.7403   19.2019   14.9999 F   0  0  0  0  0  0
   22.3305   16.6826   20.8556 H   0  0  0  0  0  0
  1  2  2  0  0  0
  2  3  1  0  0  0
  3  7  1  0  0  0
  4  3  2  0  0  0
  5  4  1  0  0  0
  6  5  2  0  0  0
  6  1  1  0  0  0
  7  8  2  0  0  0
  7 12  1  0  0  0
  8  9  1  0  0  0
  9 10  2  0  0  0
 10 13  1  0  0  0
 11 10  1  0  0  0
 12 11  2  0  0  0
 13 14  1  0  0  0
 15 17  1  0  0  0
 15 13  1  0  0  0
 16 15  2  0  0  0
 17 19  1  0  0  0
 18 12  1  0  0  0
M  END
>  <CHROM.0>
-178.98379225,179.65396453,7.70579945,-56.23886489,-172.28816368,-60.37810297

>  <CHROM.1>
23.44631804,-119.07349589,178.32115674,-3.54481805,25.27649687,19.96723148
16.96920209,-1.21636747,0.74218710,2.06365537

>  <FORMUL>
      FLP    C15 H13 F1 O2

>  <HET>
 FLP  A 701      18

>  <HETNAM>
     FLP FLURBIPROFEN

>  <Name>
FLP.pdb

>  <RI>
0

>  <Rbt.Current_Directory>
/home/malgorzata/Desktop/rDOCK_IFD/test4/IFD

>  <Rbt.Executable>
rbdock ($Id: //depot/dev/client3/rdock/2013.1/src/exe/rbdock.cxx#4 $)

>  <Rbt.Library>
libRbt.so (2013.1, Build901 2013/11/27)

>  <Rbt.Parameter_File>
/home/malgorzata/Desktop/rDock_2013.1_src/data/scripts/hard_docking.prm

>  <Rbt.Receptor>
cavity.prm

>  <SCORE>
-9.23952

>  <SCORE.INTER>
-7.29263

>  <SCORE.INTER.CONST>
1

>  <SCORE.INTER.POLAR>
0

>  <SCORE.INTER.REPUL>
0

>  <SCORE.INTER.ROT>
3

>  <SCORE.INTER.VDW>
-15.6926

>  <SCORE.INTER.norm>
-0.405146

>  <SCORE.INTRA>
-0.918047

>  <SCORE.INTRA.DIHEDRAL>
-3.16592

>  <SCORE.INTRA.DIHEDRAL.0>
5.47211

>  <SCORE.INTRA.POLAR>
0

>  <SCORE.INTRA.POLAR.0>
0

>  <SCORE.INTRA.REPUL>
0

>  <SCORE.INTRA.REPUL.0>
0

>  <SCORE.INTRA.VDW>
0.664912

>  <SCORE.INTRA.VDW.0>
0.722234

>  <SCORE.INTRA.norm>
-0.0510026

>  <SCORE.RESTR>
0

>  <SCORE.RESTR.CAVITY>
0

>  <SCORE.RESTR.norm>
0

>  <SCORE.SYSTEM>
-1.02885

>  <SCORE.SYSTEM.CONST>
0

>  <SCORE.SYSTEM.DIHEDRAL>
0.217333

>  <SCORE.SYSTEM.REPUL>
0.0358913

>  <SCORE.SYSTEM.VDW>
-1.31697

>  <SCORE.SYSTEM.norm>
-0.0571581

>  <SCORE.heavy>
18

>  <SCORE.norm>
-0.513307

$$$$
FLP.pdb
  rDOCK(R)          3D
libRbt.so/2013.1/901 2013/11/27
 19 20  0  0  0  0  0  0  0  0999 V2000
   24.0694   15.8139   19.6134 C   0  0  0  0  0  0
   24.4637   17.0640   19.0877 C   0  0  0  0  0  0
   23.9422   17.5035   17.8751 C   0  0  0  0  0  0
   23.0309   16.6957   17.1926 C   0  0  0  0  0  0
   22.6420   15.4510   17.7237 C   0  0  0  0  0  0
   23.1654   15.0141   18.9363 C   0  0  0  0  0  0
   24.3783   18.8250   17.2794 C   0  0  0  0  0  0
   24.5795   18.9751   15.8858 C   0  0  0  0  0  0
   24.9704   20.2426   15.3559 C   0  0  0  0  0  0
   25.1550   21.3528   16.2504 C   0  0  0  0  0  0
   24.9464   21.1895   17.6145 C   0  0  0  0  0  0
   24.5678   19.9478   18.1346 C   0  0  0  0  0  0
   25.6661   22.6889   15.7519 C   0  0  0  0  0  0
   27.0038   23.0300   16.4042 C   0  0  0  0  0  0
   24.6225   23.7511   16.0959 C   0  0  0  0  0  0
   24.0118   24.3107   15.2190 O   0  0  0  0  0  0
   24.4003   24.0892   17.3385 O   0  0  0  0  0  0
   24.3969   19.8209   19.4775 F   0  0  0  0  0  0
   24.8777   23.6739   18.0296 H   0  0  0  0  0  0
  1  2  2  0  0  0
  2  3  1  0  0  0
  3  7  1  0  0  0
  4  3  2  0  0  0
  5  4  1  0  0  0
  6  5  2  0  0  0
  6  1  1  0  0  0
  7  8  2  0  0  0
  7 12  1  0  0  0
  8  9  1  0  0  0
  9 10  2  0  0  0
 10 13  1  0  0  0
 11 10  1  0  0  0
 12 11  2  0  0  0
 13 14  1  0  0  0
 15 17  1  0  0  0
 15 13  1  0  0  0
 16 15  2  0  0  0
 17 19  1  0  0  0
 18 12  1  0  0  0
M  END
>  <CHROM.0>
-178.06827088,61.91304794,-141.27410841,-179.23689392,-171.83332914,-60.37810297

>  <CHROM.1>
141.20774328,-117.38718557,-0.51856548,-113.07056751,24.45920505,19.90692692
17.31884008,-2.43819877,-1.30865847,-1.16399507

>  <FORMUL>
      FLP    C15 H13 F1 O2

>  <HET>
 FLP  A 701      18

>  <HETNAM>
     FLP FLURBIPROFEN

>  <Name>
FLP.pdb

>  <RI>
0

>  <Rbt.Current_Directory>
/home/malgorzata/Desktop/rDOCK_IFD/test4/IFD

>  <Rbt.Executable>
rbdock ($Id: //depot/dev/client3/rdock/2013.1/src/exe/rbdock.cxx#4 $)

>  <Rbt.Library>
libRbt.so (2013.1, Build901 2013/11/27)

>  <Rbt.Parameter_File>
/home/malgorzata/Desktop/rDock_2013.1_src/data/scripts/hard_docking.prm

>  <Rbt.Receptor>
cavity.prm

>  <SCORE>
-13.0984

>  <SCORE.INTER>
-10.9135

>  <SCORE.INTER.CONST>
1

>  <SCORE.INTER.POLAR>
-0.889546

>  <SCORE.INTER.REPUL>
0.0179234

>  <SCORE.INTER.ROT>
3

>  <SCORE.INTER.VDW>
-16.3787

>  <SCORE.INTER.norm>
-0.606307

>  <SCORE.INTRA>
-1.48658

>  <SCORE.INTRA.DIHEDRAL>
-2.03858

>  <SCORE.INTRA.DIHEDRAL.0>
5.47211

>  <SCORE.INTRA.POLAR>
0

>  <SCORE.INTRA.POLAR.0>
0

>  <SCORE.INTRA.REPUL>
0

>  <SCORE.INTRA.REPUL.0>
0

>  <SCORE.INTRA.VDW>
-0.467291

>  <SCORE.INTRA.VDW.0>
0.722234

>  <SCORE.INTRA.norm>
-0.0825877

>  <SCORE.RESTR>
0.0402218

>  <SCORE.RESTR.CAVITY>
0.0402218

>  <SCORE.RESTR.norm>
0.00223454

>  <SCORE.SYSTEM>
-0.738552

>  <SCORE.SYSTEM.CONST>
0

>  <SCORE.SYSTEM.DIHEDRAL>
1.87582

>  <SCORE.SYSTEM.VDW>
-1.67646

>  <SCORE.SYSTEM.norm>
-0.0410307

>  <SCORE.heavy>
18

>  <SCORE.norm>
-0.727691

$$$$
FLP.pdb
  rDOCK(R)          3D
libRbt.so/2013.1/901 2013/11/27
 19 20  0  0  0  0  0  0  0  0999 V2000
   21.6207   19.6986   19.3439 C   0  0  0  0  0  0
   21.9603   20.3413   18.1329 C   0  0  0  0  0  0
   23.2633   20.2705   17.6505 C   0  0  0  0  0  0
   24.2210   19.5601   18.3764 C   0  0  0  0  0  0
   23.8744   18.9213   19.5824 C   0  0  0  0  0  0
   22.5708   18.9941   20.0625 C   0  0  0  0  0  0
   23.6540   20.9808   16.3720 C   0  0  0  0  0  0
   24.5155   20.3748   15.4256 C   0  0  0  0  0  0
   24.8460   21.0656   14.2199 C   0  0  0  0  0  0
   24.2964   22.3729   13.9844 C   0  0  0  0  0  0
   23.4470   22.9496   14.9208 C   0  0  0  0  0  0
   23.1262   22.2758   16.1035 C   0  0  0  0  0  0
   24.6952   23.1878   12.7712 C   0  0  0  0  0  0
   24.2583   22.4881   11.4864 C   0  0  0  0  0  0
   26.2142   23.3546   12.7937 C   0  0  0  0  0  0
   26.8512   22.9997   13.7546 O   0  0  0  0  0  0
   26.8386   23.9103   11.7892 O   0  0  0  0  0  0
   22.3114   22.8828   17.0068 F   0  0  0  0  0  0
   26.3587   24.1812   11.0313 H   0  0  0  0  0  0
  1  2  2  0  0  0
  2  3  1  0  0  0
  3  7  1  0  0  0
  4  3  2  0  0  0
  5  4  1  0  0  0
  6  5  2  0  0  0
  6  1  1  0  0  0
  7  8  2  0  0  0
  7 12  1  0  0  0
  8  9  1  0  0  0
  9 10  2  0  0  0
 10 13  1  0  0  0
 11 10  1  0  0  0
 12 11  2  0  0  0
 13 14  1  0  0  0
 15 17  1  0  0  0
 15 13  1  0  0  0
 16 15  2  0  0  0
 17 19  1  0  0  0
 18 12  1  0  0  0
M  END
>  <CHROM.0>
-15.83859252,178.99904922,8.29426507,59.80731906,3.31904771,-60.37810297

>  <CHROM.1>
-139.41091497,63.85390612,-2.35201519,-8.22021290,24.06776902,21.57375930
15.67577348,1.99458315,-0.41817422,2.24050103

>  <FORMUL>
      FLP    C15 H13 F1 O2

>  <HET>
 FLP  A 701      18

>  <HETNAM>
     FLP FLURBIPROFEN

>  <Name>
FLP.pdb

>  <RI>
0

>  <Rbt.Current_Directory>
/home/malgorzata/Desktop/rDOCK_IFD/test4/IFD

>  <Rbt.Executable>
rbdock ($Id: //depot/dev/client3/rdock/2013.1/src/exe/rbdock.cxx#4 $)

>  <Rbt.Library>
libRbt.so (2013.1, Build901 2013/11/27)

>  <Rbt.Parameter_File>
/home/malgorzata/Desktop/rDock_2013.1_src/data/scripts/hard_docking.prm

>  <Rbt.Receptor>
cavity.prm

>  <SCORE>
-17.7014

>  <SCORE.INTER>
-13.5508

>  <SCORE.INTER.CONST>
1

>  <SCORE.INTER.POLAR>
-0.763473

>  <SCORE.INTER.REPUL>
0

>  <SCORE.INTER.ROT>
3

>  <SCORE.INTER.VDW>
-19.355

>  <SCORE.INTER.norm>
-0.752824

>  <SCORE.INTRA>
-1.30974

>  <SCORE.INTRA.DIHEDRAL>
-1.81631

>  <SCORE.INTRA.DIHEDRAL.0>
5.47211

>  <SCORE.INTRA.POLAR>
0

>  <SCORE.INTRA.POLAR.0>
0

>  <SCORE.INTRA.REPUL>
0

>  <SCORE.INTRA.REPUL.0>
0

>  <SCORE.INTRA.VDW>
-0.401584

>  <SCORE.INTRA.VDW.0>
0.722234

>  <SCORE.INTRA.norm>
-0.0727634

>  <SCORE.RESTR>
0

>  <SCORE.RESTR.CAVITY>
0

>  <SCORE.RESTR.norm>
0

>  <SCORE.SYSTEM>
-2.84086

>  <SCORE.SYSTEM.CONST>
0

>  <SCORE.SYSTEM.DIHEDRAL>
0.445084

>  <SCORE.SYSTEM.POLAR>
-0.361817

>  <SCORE.SYSTEM.VDW>
-1.83323

>  <SCORE.SYSTEM.norm>
-0.157826

>  <SCORE.heavy>
18

>  <SCORE.norm>
-0.983413

$$$$
