FLP.pdb
  rDOCK(R)          3D
libRbt.so/2013.1/901 2013/11/27
 19 20  0  0  0  0  0  0  0  0999 V2000
   24.7454   25.4963    9.0789 C   0  0  0  0  0  0
   25.2667   25.3179   10.3794 C   0  0  0  0  0  0
   25.4222   24.0355   10.8956 C   0  0  0  0  0  0
   25.0579   22.9376   10.1141 C   0  0  0  0  0  0
   24.5397   23.1236    8.8182 C   0  0  0  0  0  0
   24.3850   24.4072    8.3048 C   0  0  0  0  0  0
   25.9478   23.8256   12.2997 C   0  0  0  0  0  0
   26.5374   24.8844   13.0322 C   0  0  0  0  0  0
   27.0033   24.6556   14.3629 C   0  0  0  0  0  0
   26.8661   23.3468   14.9415 C   0  0  0  0  0  0
   26.2787   22.3210   14.2108 C   0  0  0  0  0  0
   25.8262   22.5430   12.9063 C   0  0  0  0  0  0
   27.4344   23.0268   16.3088 C   0  0  0  0  0  0
   28.8335   22.4285   16.1828 C   0  0  0  0  0  0
   26.4930   22.0346   16.9905 C   0  0  0  0  0  0
   26.6808   20.8476   16.8864 O   0  0  0  0  0  0
   25.4573   22.4556   17.6671 O   0  0  0  0  0  0
   25.2792   21.5085   12.2142 F   0  0  0  0  0  0
   24.8709   21.8384   18.0586 H   0  0  0  0  0  0
  1  2  2  0  0  0
  2  3  1  0  0  0
  3  7  1  0  0  0
  4  3  2  0  0  0
  5  4  1  0  0  0
  6  5  2  0  0  0
  6  1  1  0  0  0
  7  8  2  0  0  0
  7 12  1  0  0  0
  8  9  1  0  0  0
  9 10  2  0  0  0
 10 13  1  0  0  0
 11 10  1  0  0  0
 12 11  2  0  0  0
 13 14  1  0  0  0
 15 17  1  0  0  0
 15 13  1  0  0  0
 16 15  2  0  0  0
 17 19  1  0  0  0
 18 12  1  0  0  0
M  END
>  <CHROM.0>
179.01287425,5.43755748,-47.49443608,48.33757854,64.85849145,-178.42089999
-60.37810297

>  <CHROM.1>
-12.44758074,-93.81617116,178.06503998,92.27923331,26.00337592,23.19477120
13.20475303,-2.14553443,1.06684416,2.35581557

>  <FORMUL>
      FLP    C15 H13 F1 O2

>  <HET>
 FLP  A 701      18

>  <HETNAM>
     FLP FLURBIPROFEN

>  <Name>
FLP.pdb

>  <RI>
0

>  <Rbt.Current_Directory>
/home/malgorzata/Desktop/rDOCK_IFD/Wyniki/4a_COX2/IFD

>  <Rbt.Executable>
rbdock ($Id: //depot/dev/client3/rdock/2013.1/src/exe/rbdock.cxx#4 $)

>  <Rbt.Library>
libRbt.so (2013.1, Build901 2013/11/27)

>  <Rbt.Parameter_File>
/home/malgorzata/Desktop/rDock_2013.1_src/data/scripts/hard_docking.prm

>  <Rbt.Receptor>
cavity.prm

>  <SCORE>
-18.3678

>  <SCORE.INTER>
-8.0071

>  <SCORE.INTER.CONST>
1

>  <SCORE.INTER.POLAR>
0

>  <SCORE.INTER.REPUL>
0

>  <SCORE.INTER.ROT>
3

>  <SCORE.INTER.VDW>
-16.4071

>  <SCORE.INTER.norm>
-0.444839

>  <SCORE.INTRA>
-0.111436

>  <SCORE.INTRA.DIHEDRAL>
-2.91324

>  <SCORE.INTRA.DIHEDRAL.0>
5.47211

>  <SCORE.INTRA.POLAR>
0

>  <SCORE.INTRA.POLAR.0>
0

>  <SCORE.INTRA.REPUL>
0

>  <SCORE.INTRA.REPUL.0>
0

>  <SCORE.INTRA.VDW>
1.34519

>  <SCORE.INTRA.VDW.0>
0.722234

>  <SCORE.INTRA.norm>
-0.00619089

>  <SCORE.RESTR>
0

>  <SCORE.RESTR.CAVITY>
0

>  <SCORE.RESTR.norm>
0

>  <SCORE.SYSTEM>
-10.2492

>  <SCORE.SYSTEM.CONST>
0

>  <SCORE.SYSTEM.DIHEDRAL>
1.30756

>  <SCORE.SYSTEM.POLAR>
-2.73076

>  <SCORE.SYSTEM.VDW>
-1.61842

>  <SCORE.SYSTEM.norm>
-0.569402

>  <SCORE.heavy>
18

>  <SCORE.norm>
-1.02043

$$$$
FLP.pdb
  rDOCK(R)          3D
libRbt.so/2013.1/901 2013/11/27
 19 20  0  0  0  0  0  0  0  0999 V2000
   25.7464   24.7734   11.1574 C   0  0  0  0  0  0
   25.8997   24.2261   12.4504 C   0  0  0  0  0  0
   24.8655   23.4909   13.0207 C   0  0  0  0  0  0
   23.6843   23.3045   12.3005 C   0  0  0  0  0  0
   23.5394   23.8525   11.0116 C   0  0  0  0  0  0
   24.5751   24.5876   10.4440 C   0  0  0  0  0  0
   24.9985   22.9250   14.4185 C   0  0  0  0  0  0
   26.1842   22.2771   14.8420 C   0  0  0  0  0  0
   26.2827   21.7739   16.1751 C   0  0  0  0  0  0
   25.1703   21.9335   17.0716 C   0  0  0  0  0  0
   24.0169   22.5782   16.6415 C   0  0  0  0  0  0
   23.9180   23.0673   15.3351 C   0  0  0  0  0  0
   25.1859   21.3298   18.4610 C   0  0  0  0  0  0
   26.6113   21.2702   19.0051 C   0  0  0  0  0  0
   24.5937   19.9239   18.3709 C   0  0  0  0  0  0
   23.6097   19.6362   19.0067 O   0  0  0  0  0  0
   25.1606   19.0080   17.6309 O   0  0  0  0  0  0
   22.7642   23.6706   14.9435 F   0  0  0  0  0  0
   24.8036   18.1422   17.6017 H   0  0  0  0  0  0
  1  2  2  0  0  0
  2  3  1  0  0  0
  3  7  1  0  0  0
  4  3  2  0  0  0
  5  4  1  0  0  0
  6  5  2  0  0  0
  6  1  1  0  0  0
  7  8  2  0  0  0
  7 12  1  0  0  0
  8  9  1  0  0  0
  9 10  2  0  0  0
 10 13  1  0  0  0
 11 10  1  0  0  0
 12 11  2  0  0  0
 13 14  1  0  0  0
 15 17  1  0  0  0
 15 13  1  0  0  0
 16 15  2  0  0  0
 17 19  1  0  0  0
 18 12  1  0  0  0
M  END
>  <CHROM.0>
179.39151145,7.71611091,-47.67860295,45.40291433,77.27440685,13.70115008
-60.37810297

>  <CHROM.1>
-44.43694585,30.72612826,178.25523415,-120.29812014,24.77854310,22.35465875
15.23201013,-1.62359375,-0.00129730,2.08916697

>  <FORMUL>
      FLP    C15 H13 F1 O2

>  <HET>
 FLP  A 701      18

>  <HETNAM>
     FLP FLURBIPROFEN

>  <Name>
FLP.pdb

>  <RI>
0

>  <Rbt.Current_Directory>
/home/malgorzata/Desktop/rDOCK_IFD/Wyniki/4a_COX2/IFD

>  <Rbt.Executable>
rbdock ($Id: //depot/dev/client3/rdock/2013.1/src/exe/rbdock.cxx#4 $)

>  <Rbt.Library>
libRbt.so (2013.1, Build901 2013/11/27)

>  <Rbt.Parameter_File>
/home/malgorzata/Desktop/rDock_2013.1_src/data/scripts/hard_docking.prm

>  <Rbt.Receptor>
cavity.prm

>  <SCORE>
-23.5193

>  <SCORE.INTER>
-12.7186

>  <SCORE.INTER.CONST>
1

>  <SCORE.INTER.POLAR>
-0.850016

>  <SCORE.INTER.REPUL>
0

>  <SCORE.INTER.ROT>
3

>  <SCORE.INTER.VDW>
-18.2285

>  <SCORE.INTER.norm>
-0.706588

>  <SCORE.INTRA>
-1.30348

>  <SCORE.INTRA.DIHEDRAL>
-1.53647

>  <SCORE.INTRA.DIHEDRAL.0>
5.47211

>  <SCORE.INTRA.POLAR>
0

>  <SCORE.INTRA.POLAR.0>
0

>  <SCORE.INTRA.REPUL>
0

>  <SCORE.INTRA.REPUL.0>
0

>  <SCORE.INTRA.VDW>
-0.535248

>  <SCORE.INTRA.VDW.0>
0.722234

>  <SCORE.INTRA.norm>
-0.0724157

>  <SCORE.RESTR>
0

>  <SCORE.RESTR.CAVITY>
0

>  <SCORE.RESTR.norm>
0

>  <SCORE.SYSTEM>
-9.49722

>  <SCORE.SYSTEM.CONST>
0

>  <SCORE.SYSTEM.DIHEDRAL>
2.83087

>  <SCORE.SYSTEM.POLAR>
-2.7236

>  <SCORE.SYSTEM.VDW>
-1.65243

>  <SCORE.SYSTEM.norm>
-0.527624

>  <SCORE.heavy>
18

>  <SCORE.norm>
-1.30663

$$$$
FLP.pdb
  rDOCK(R)          3D
libRbt.so/2013.1/901 2013/11/27
 19 20  0  0  0  0  0  0  0  0999 V2000
   24.8887   19.0006   18.6244 C   0  0  0  0  0  0
   25.5879   19.9558   17.8539 C   0  0  0  0  0  0
   24.9070   21.0356   17.3009 C   0  0  0  0  0  0
   23.5335   21.1584   17.5182 C   0  0  0  0  0  0
   22.8436   20.2026   18.2883 C   0  0  0  0  0  0
   23.5272   19.1237   18.8396 C   0  0  0  0  0  0
   25.6329   22.0510   16.4445 C   0  0  0  0  0  0
   27.0301   22.2494   16.5607 C   0  0  0  0  0  0
   27.6857   23.2012   15.7214 C   0  0  0  0  0  0
   26.9129   23.9476   14.7664 C   0  0  0  0  0  0
   25.5437   23.7351   14.6609 C   0  0  0  0  0  0
   24.9003   22.8066   15.4852 C   0  0  0  0  0  0
   27.5423   25.0388   13.9248 C   0  0  0  0  0  0
   27.2381   26.4144   14.5135 C   0  0  0  0  0  0
   26.9742   24.9302   12.5102 C   0  0  0  0  0  0
   25.9127   25.4355   12.2403 O   0  0  0  0  0  0
   27.6131   24.2645   11.5848 O   0  0  0  0  0  0
   23.5554   22.6441   15.3695 F   0  0  0  0  0  0
   27.2533   24.1987   10.7221 H   0  0  0  0  0  0
  1  2  2  0  0  0
  2  3  1  0  0  0
  3  7  1  0  0  0
  4  3  2  0  0  0
  5  4  1  0  0  0
  6  5  2  0  0  0
  6  1  1  0  0  0
  7  8  2  0  0  0
  7 12  1  0  0  0
  8  9  1  0  0  0
  9 10  2  0  0  0
 10 13  1  0  0  0
 11 10  1  0  0  0
 12 11  2  0  0  0
 13 14  1  0  0  0
 15 17  1  0  0  0
 15 13  1  0  0  0
 16 15  2  0  0  0
 17 19  1  0  0  0
 18 12  1  0  0  0
M  END
>  <CHROM.0>
-167.82299307,5.34404765,177.77014861,44.82769217,58.78403218,-178.38346458
-60.37810297

>  <CHROM.1>
-23.54247132,-99.77675510,179.55537849,83.33963516,25.64806457,22.70782155
15.55642979,-1.96006789,-0.12946506,-0.84405744

>  <FORMUL>
      FLP    C15 H13 F1 O2

>  <HET>
 FLP  A 701      18

>  <HETNAM>
     FLP FLURBIPROFEN

>  <Name>
FLP.pdb

>  <RI>
0

>  <Rbt.Current_Directory>
/home/malgorzata/Desktop/rDOCK_IFD/Wyniki/4a_COX2/IFD

>  <Rbt.Executable>
rbdock ($Id: //depot/dev/client3/rdock/2013.1/src/exe/rbdock.cxx#4 $)

>  <Rbt.Library>
libRbt.so (2013.1, Build901 2013/11/27)

>  <Rbt.Parameter_File>
/home/malgorzata/Desktop/rDock_2013.1_src/data/scripts/hard_docking.prm

>  <Rbt.Receptor>
cavity.prm

>  <SCORE>
-15.5477

>  <SCORE.INTER>
-7.37432

>  <SCORE.INTER.CONST>
1

>  <SCORE.INTER.POLAR>
0

>  <SCORE.INTER.REPUL>
0

>  <SCORE.INTER.ROT>
3

>  <SCORE.INTER.VDW>
-15.7743

>  <SCORE.INTER.norm>
-0.409685

>  <SCORE.INTRA>
-0.506953

>  <SCORE.INTRA.DIHEDRAL>
-2.01649

>  <SCORE.INTRA.DIHEDRAL.0>
5.47211

>  <SCORE.INTRA.POLAR>
0

>  <SCORE.INTRA.POLAR.0>
0

>  <SCORE.INTRA.REPUL>
0

>  <SCORE.INTRA.REPUL.0>
0

>  <SCORE.INTRA.VDW>
0.501294

>  <SCORE.INTRA.VDW.0>
0.722234

>  <SCORE.INTRA.norm>
-0.0281641

>  <SCORE.RESTR>
0

>  <SCORE.RESTR.CAVITY>
0

>  <SCORE.RESTR.norm>
0

>  <SCORE.SYSTEM>
-7.66641

>  <SCORE.SYSTEM.CONST>
0

>  <SCORE.SYSTEM.DIHEDRAL>
0.690213

>  <SCORE.SYSTEM.POLAR>
-2.07255

>  <SCORE.SYSTEM.REPUL>
0.197509

>  <SCORE.SYSTEM.VDW>
-1.95239

>  <SCORE.SYSTEM.norm>
-0.425912

>  <SCORE.heavy>
18

>  <SCORE.norm>
-0.86376

$$$$
FLP.pdb
  rDOCK(R)          3D
libRbt.so/2013.1/901 2013/11/27
 19 20  0  0  0  0  0  0  0  0999 V2000
   27.8501   21.1596   19.8746 C   0  0  0  0  0  0
   27.2059   21.6945   18.7373 C   0  0  0  0  0  0
   27.9010   21.8173   17.5385 C   0  0  0  0  0  0
   29.2339   21.4066   17.4787 C   0  0  0  0  0  0
   29.8690   20.8734   18.6166 C   0  0  0  0  0  0
   29.1714   20.7522   19.8141 C   0  0  0  0  0  0
   27.2377   22.4193   16.3182 C   0  0  0  0  0  0
   27.4538   23.7700   15.9523 C   0  0  0  0  0  0
   26.8282   24.2988   14.7821 C   0  0  0  0  0  0
   25.9839   23.4472   13.9894 C   0  0  0  0  0  0
   25.7885   22.1221   14.3593 C   0  0  0  0  0  0
   26.3970   21.6047   15.5072 C   0  0  0  0  0  0
   25.2184   23.9859   12.7983 C   0  0  0  0  0  0
   23.7225   24.0381   13.0997 C   0  0  0  0  0  0
   25.4876   23.0648   11.6089 C   0  0  0  0  0  0
   26.0472   23.4865   10.6270 O   0  0  0  0  0  0
   25.0892   21.8203   11.6262 O   0  0  0  0  0  0
   26.1623   20.3101   15.8502 F   0  0  0  0  0  0
   25.1364   21.3024   10.8467 H   0  0  0  0  0  0
  1  2  2  0  0  0
  2  3  1  0  0  0
  3  7  1  0  0  0
  4  3  2  0  0  0
  5  4  1  0  0  0
  6  5  2  0  0  0
  6  1  1  0  0  0
  7  8  2  0  0  0
  7 12  1  0  0  0
  8  9  1  0  0  0
  9 10  2  0  0  0
 10 13  1  0  0  0
 11 10  1  0  0  0
 12 11  2  0  0  0
 13 14  1  0  0  0
 15 17  1  0  0  0
 15 13  1  0  0  0
 16 15  2  0  0  0
 17 19  1  0  0  0
 18 12  1  0  0  0
M  END
>  <CHROM.0>
-179.13272409,-121.33553672,-47.39122361,46.90843624,144.45998442,12.88248764
-60.37810297

>  <CHROM.1>
99.18374542,-109.22975320,170.35378130,-117.10676944,26.73935938,22.30239887
15.35082683,-0.45586209,-1.07855685,-0.20940914

>  <FORMUL>
      FLP    C15 H13 F1 O2

>  <HET>
 FLP  A 701      18

>  <HETNAM>
     FLP FLURBIPROFEN

>  <Name>
FLP.pdb

>  <RI>
0

>  <Rbt.Current_Directory>
/home/malgorzata/Desktop/rDOCK_IFD/Wyniki/4a_COX2/IFD

>  <Rbt.Executable>
rbdock ($Id: //depot/dev/client3/rdock/2013.1/src/exe/rbdock.cxx#4 $)

>  <Rbt.Library>
libRbt.so (2013.1, Build901 2013/11/27)

>  <Rbt.Parameter_File>
/home/malgorzata/Desktop/rDock_2013.1_src/data/scripts/hard_docking.prm

>  <Rbt.Receptor>
cavity.prm

>  <SCORE>
-5.15901

>  <SCORE.INTER>
-0.843719

>  <SCORE.INTER.CONST>
1

>  <SCORE.INTER.POLAR>
-0.44908

>  <SCORE.INTER.REPUL>
0

>  <SCORE.INTER.ROT>
3

>  <SCORE.INTER.VDW>
-7.71685

>  <SCORE.INTER.norm>
-0.0468733

>  <SCORE.INTRA>
-0.9249

>  <SCORE.INTRA.DIHEDRAL>
1.30476

>  <SCORE.INTRA.DIHEDRAL.0>
5.47211

>  <SCORE.INTRA.POLAR>
0

>  <SCORE.INTRA.POLAR.0>
0

>  <SCORE.INTRA.REPUL>
0

>  <SCORE.INTRA.REPUL.0>
0

>  <SCORE.INTRA.VDW>
-1.57728

>  <SCORE.INTRA.VDW.0>
0.722234

>  <SCORE.INTRA.norm>
-0.0513833

>  <SCORE.RESTR>
0

>  <SCORE.RESTR.CAVITY>
0

>  <SCORE.RESTR.norm>
0

>  <SCORE.SYSTEM>
-3.39039

>  <SCORE.SYSTEM.CONST>
0

>  <SCORE.SYSTEM.DIHEDRAL>
9.41049

>  <SCORE.SYSTEM.POLAR>
-1.94884

>  <SCORE.SYSTEM.REPUL>
0.00533193

>  <SCORE.SYSTEM.VDW>
-1.49623

>  <SCORE.SYSTEM.norm>
-0.188355

>  <SCORE.heavy>
18

>  <SCORE.norm>
-0.286612

$$$$
FLP.pdb
  rDOCK(R)          3D
libRbt.so/2013.1/901 2013/11/27
 19 20  0  0  0  0  0  0  0  0999 V2000
   28.8707   22.8389   16.2621 C   0  0  0  0  0  0
   28.2172   21.8878   17.0765 C   0  0  0  0  0  0
   26.8731   21.5983   16.8646 C   0  0  0  0  0  0
   26.1870   22.2572   15.8428 C   0  0  0  0  0  0
   26.8458   23.2034   15.0346 C   0  0  0  0  0  0
   28.1898   23.4911   15.2490 C   0  0  0  0  0  0
   26.1470   20.6068   17.7486 C   0  0  0  0  0  0
   24.7359   20.6184   17.8653 C   0  0  0  0  0  0
   24.0826   19.6542   18.6922 C   0  0  0  0  0  0
   24.8718   18.6815   19.3973 C   0  0  0  0  0  0
   26.2552   18.6801   19.2657 C   0  0  0  0  0  0
   26.8960   19.6264   18.4598 C   0  0  0  0  0  0
   24.2366   17.7034   20.3642 C   0  0  0  0  0  0
   23.5110   16.5937   19.6071 C   0  0  0  0  0  0
   23.2528   18.4781   21.2404 C   0  0  0  0  0  0
   23.4223   18.5452   22.4328 O   0  0  0  0  0  0
   22.2013   19.0503   20.7163 O   0  0  0  0  0  0
   28.2529   19.6087   18.3754 F   0  0  0  0  0  0
   21.6132   19.5372   21.2595 H   0  0  0  0  0  0
  1  2  2  0  0  0
  2  3  1  0  0  0
  3  7  1  0  0  0
  4  3  2  0  0  0
  5  4  1  0  0  0
  6  5  2  0  0  0
  6  1  1  0  0  0
  7  8  2  0  0  0
  7 12  1  0  0  0
  8  9  1  0  0  0
  9 10  2  0  0  0
 10 13  1  0  0  0
 11 10  1  0  0  0
 12 11  2  0  0  0
 13 14  1  0  0  0
 15 17  1  0  0  0
 15 13  1  0  0  0
 16 15  2  0  0  0
 17 19  1  0  0  0
 18 12  1  0  0  0
M  END
>  <CHROM.0>
-178.04360751,-120.29692445,71.62863540,44.03047990,148.38745307,-169.76143658
-60.37810297

>  <CHROM.1>
158.43808627,75.86619680,-178.78951997,-117.59054612,25.68288399,20.10170675
18.45399302,-0.96611581,-0.16390649,2.42338593

>  <FORMUL>
      FLP    C15 H13 F1 O2

>  <HET>
 FLP  A 701      18

>  <HETNAM>
     FLP FLURBIPROFEN

>  <Name>
FLP.pdb

>  <RI>
0

>  <Rbt.Current_Directory>
/home/malgorzata/Desktop/rDOCK_IFD/Wyniki/4a_COX2/IFD

>  <Rbt.Executable>
rbdock ($Id: //depot/dev/client3/rdock/2013.1/src/exe/rbdock.cxx#4 $)

>  <Rbt.Library>
libRbt.so (2013.1, Build901 2013/11/27)

>  <Rbt.Parameter_File>
/home/malgorzata/Desktop/rDock_2013.1_src/data/scripts/hard_docking.prm

>  <Rbt.Receptor>
cavity.prm

>  <SCORE>
-13.3431

>  <SCORE.INTER>
-9.95274

>  <SCORE.INTER.CONST>
1

>  <SCORE.INTER.POLAR>
0

>  <SCORE.INTER.REPUL>
0

>  <SCORE.INTER.ROT>
3

>  <SCORE.INTER.VDW>
-18.3527

>  <SCORE.INTER.norm>
-0.55293

>  <SCORE.INTRA>
-2.03387

>  <SCORE.INTRA.DIHEDRAL>
-3.33734

>  <SCORE.INTRA.DIHEDRAL.0>
5.47211

>  <SCORE.INTRA.POLAR>
0

>  <SCORE.INTRA.POLAR.0>
0

>  <SCORE.INTRA.REPUL>
0

>  <SCORE.INTRA.REPUL.0>
0

>  <SCORE.INTRA.VDW>
-0.365207

>  <SCORE.INTRA.VDW.0>
0.722234

>  <SCORE.INTRA.norm>
-0.112993

>  <SCORE.RESTR>
0

>  <SCORE.RESTR.CAVITY>
0

>  <SCORE.RESTR.norm>
0

>  <SCORE.SYSTEM>
-1.3565

>  <SCORE.SYSTEM.CONST>
0

>  <SCORE.SYSTEM.DIHEDRAL>
8.57683

>  <SCORE.SYSTEM.POLAR>
-1.28871

>  <SCORE.SYSTEM.REPUL>
0.0132718

>  <SCORE.SYSTEM.VDW>
-1.32964

>  <SCORE.SYSTEM.norm>
-0.0753611

>  <SCORE.heavy>
18

>  <SCORE.norm>
-0.741284

$$$$
FLP.pdb
  rDOCK(R)          3D
libRbt.so/2013.1/901 2013/11/27
 19 20  0  0  0  0  0  0  0  0999 V2000
   23.5172   23.3326   14.6519 C   0  0  0  0  0  0
   24.2883   22.9602   15.7752 C   0  0  0  0  0  0
   25.5947   22.5138   15.6039 C   0  0  0  0  0  0
   26.1263   22.4406   14.3152 C   0  0  0  0  0  0
   25.3516   22.8145   13.2005 C   0  0  0  0  0  0
   24.0454   23.2602   13.3748 C   0  0  0  0  0  0
   26.4251   22.0786   16.7925 C   0  0  0  0  0  0
   25.8231   21.7437   18.0296 C   0  0  0  0  0  0
   26.6360   21.3164   19.1237 C   0  0  0  0  0  0
   28.0607   21.2327   18.9514 C   0  0  0  0  0  0
   28.6340   21.5585   17.7283 C   0  0  0  0  0  0
   27.8394   21.9810   16.6579 C   0  0  0  0  0  0
   28.9744   20.8832   20.1081 C   0  0  0  0  0  0
   30.0795   21.9265   20.2543 C   0  0  0  0  0  0
   29.5781   19.5065   19.8328 C   0  0  0  0  0  0
   30.7584   19.3929   19.6112 O   0  0  0  0  0  0
   28.8220   18.4410   19.8030 O   0  0  0  0  0  0
   28.4391   22.3145   15.4841 F   0  0  0  0  0  0
   29.2115   17.5920   19.7287 H   0  0  0  0  0  0
  1  2  2  0  0  0
  2  3  1  0  0  0
  3  7  1  0  0  0
  4  3  2  0  0  0
  5  4  1  0  0  0
  6  5  2  0  0  0
  6  1  1  0  0  0
  7  8  2  0  0  0
  7 12  1  0  0  0
  8  9  1  0  0  0
  9 10  2  0  0  0
 10 13  1  0  0  0
 11 10  1  0  0  0
 12 11  2  0  0  0
 13 14  1  0  0  0
 15 17  1  0  0  0
 15 13  1  0  0  0
 16 15  2  0  0  0
 17 19  1  0  0  0
 18 12  1  0  0  0
M  END
>  <CHROM.0>
-177.26206648,9.83034352,179.14499177,46.16866456,63.50737963,14.24838400
-60.37810297

>  <CHROM.1>
18.29979447,-127.17140095,-173.20065586,112.62001392,27.28710502,21.58881552
17.23117346,2.23770817,0.17894769,-1.21988924

>  <FORMUL>
      FLP    C15 H13 F1 O2

>  <HET>
 FLP  A 701      18

>  <HETNAM>
     FLP FLURBIPROFEN

>  <Name>
FLP.pdb

>  <RI>
0

>  <Rbt.Current_Directory>
/home/malgorzata/Desktop/rDOCK_IFD/Wyniki/4a_COX2/IFD

>  <Rbt.Executable>
rbdock ($Id: //depot/dev/client3/rdock/2013.1/src/exe/rbdock.cxx#4 $)

>  <Rbt.Library>
libRbt.so (2013.1, Build901 2013/11/27)

>  <Rbt.Parameter_File>
/home/malgorzata/Desktop/rDock_2013.1_src/data/scripts/hard_docking.prm

>  <Rbt.Receptor>
cavity.prm

>  <SCORE>
-18.2732

>  <SCORE.INTER>
-11.0086

>  <SCORE.INTER.CONST>
1

>  <SCORE.INTER.POLAR>
0

>  <SCORE.INTER.REPUL>
0

>  <SCORE.INTER.ROT>
3

>  <SCORE.INTER.VDW>
-19.4086

>  <SCORE.INTER.norm>
-0.611591

>  <SCORE.INTRA>
0.333067

>  <SCORE.INTRA.DIHEDRAL>
-3.03689

>  <SCORE.INTRA.DIHEDRAL.0>
5.47211

>  <SCORE.INTRA.POLAR>
0

>  <SCORE.INTRA.POLAR.0>
0

>  <SCORE.INTRA.REPUL>
0

>  <SCORE.INTRA.REPUL.0>
0

>  <SCORE.INTRA.VDW>
1.85151

>  <SCORE.INTRA.VDW.0>
0.722234

>  <SCORE.INTRA.norm>
0.0185037

>  <SCORE.RESTR>
0

>  <SCORE.RESTR.CAVITY>
0

>  <SCORE.RESTR.norm>
0

>  <SCORE.SYSTEM>
-7.59764

>  <SCORE.SYSTEM.CONST>
0

>  <SCORE.SYSTEM.DIHEDRAL>
0.870084

>  <SCORE.SYSTEM.POLAR>
-2.07255

>  <SCORE.SYSTEM.REPUL>
0.197509

>  <SCORE.SYSTEM.VDW>
-1.97355

>  <SCORE.SYSTEM.norm>
-0.422091

>  <SCORE.heavy>
18

>  <SCORE.norm>
-1.01518

$$$$
FLP.pdb
  rDOCK(R)          3D
libRbt.so/2013.1/901 2013/11/27
 19 20  0  0  0  0  0  0  0  0999 V2000
   25.7170   24.7813   11.2122 C   0  0  0  0  0  0
   25.9453   24.2013   12.4797 C   0  0  0  0  0  0
   24.9571   23.4251   13.0766 C   0  0  0  0  0  0
   23.7470   23.2305   12.4083 C   0  0  0  0  0  0
   23.5274   23.8113   11.1446 C   0  0  0  0  0  0
   24.5172   24.5872   10.5503 C   0  0  0  0  0  0
   25.1705   22.8232   14.4491 C   0  0  0  0  0  0
   26.4143   22.2576   14.8209 C   0  0  0  0  0  0
   26.5866   21.7176   16.1320 C   0  0  0  0  0  0
   25.4888   21.7564   17.0592 C   0  0  0  0  0  0
   24.2773   22.3216   16.6798 C   0  0  0  0  0  0
   24.1062   22.8466   15.3950 C   0  0  0  0  0  0
   25.5880   21.1076   18.4245 C   0  0  0  0  0  0
   26.9610   21.3621   19.0420 C   0  0  0  0  0  0
   25.3543   19.6073   18.2519 C   0  0  0  0  0  0
   24.4322   19.0667   18.8109 O   0  0  0  0  0  0
   26.1653   18.8859   17.5241 O   0  0  0  0  0  0
   22.8986   23.3691   15.0526 F   0  0  0  0  0  0
   26.9031   19.2865   17.1079 H   0  0  0  0  0  0
  1  2  2  0  0  0
  2  3  1  0  0  0
  3  7  1  0  0  0
  4  3  2  0  0  0
  5  4  1  0  0  0
  6  5  2  0  0  0
  6  1  1  0  0  0
  7  8  2  0  0  0
  7 12  1  0  0  0
  8  9  1  0  0  0
  9 10  2  0  0  0
 10 13  1  0  0  0
 11 10  1  0  0  0
 12 11  2  0  0  0
 13 14  1  0  0  0
 15 17  1  0  0  0
 15 13  1  0  0  0
 16 15  2  0  0  0
 17 19  1  0  0  0
 18 12  1  0  0  0
M  END
>  <CHROM.0>
-179.92427807,7.27135876,-48.49333672,45.85832344,65.70054506,-177.78790515
-60.37810297

>  <CHROM.1>
-40.94612682,40.90303438,0.53751542,-119.45480556,25.07839031,22.21628018
15.24130734,-1.71161108,-0.02659374,2.11671356

>  <FORMUL>
      FLP    C15 H13 F1 O2

>  <HET>
 FLP  A 701      18

>  <HETNAM>
     FLP FLURBIPROFEN

>  <Name>
FLP.pdb

>  <RI>
0

>  <Rbt.Current_Directory>
/home/malgorzata/Desktop/rDOCK_IFD/Wyniki/4a_COX2/IFD

>  <Rbt.Executable>
rbdock ($Id: //depot/dev/client3/rdock/2013.1/src/exe/rbdock.cxx#4 $)

>  <Rbt.Library>
libRbt.so (2013.1, Build901 2013/11/27)

>  <Rbt.Parameter_File>
/home/malgorzata/Desktop/rDock_2013.1_src/data/scripts/hard_docking.prm

>  <Rbt.Receptor>
cavity.prm

>  <SCORE>
-22.6619

>  <SCORE.INTER>
-10.7667

>  <SCORE.INTER.CONST>
1

>  <SCORE.INTER.POLAR>
-0.339079

>  <SCORE.INTER.REPUL>
0

>  <SCORE.INTER.ROT>
3

>  <SCORE.INTER.VDW>
-18.0139

>  <SCORE.INTER.norm>
-0.598153

>  <SCORE.INTRA>
-1.67978

>  <SCORE.INTRA.DIHEDRAL>
-1.83

>  <SCORE.INTRA.DIHEDRAL.0>
5.47211

>  <SCORE.INTRA.POLAR>
0

>  <SCORE.INTRA.POLAR.0>
0

>  <SCORE.INTRA.REPUL>
0

>  <SCORE.INTRA.REPUL.0>
0

>  <SCORE.INTRA.VDW>
-0.764775

>  <SCORE.INTRA.VDW.0>
0.722234

>  <SCORE.INTRA.norm>
-0.0933209

>  <SCORE.RESTR>
0

>  <SCORE.RESTR.CAVITY>
0

>  <SCORE.RESTR.norm>
0

>  <SCORE.SYSTEM>
-10.2154

>  <SCORE.SYSTEM.CONST>
0

>  <SCORE.SYSTEM.DIHEDRAL>
1.2692

>  <SCORE.SYSTEM.POLAR>
-2.69247

>  <SCORE.SYSTEM.VDW>
-1.69561

>  <SCORE.SYSTEM.norm>
-0.567523

>  <SCORE.heavy>
18

>  <SCORE.norm>
-1.259

$$$$
FLP.pdb
  rDOCK(R)          3D
libRbt.so/2013.1/901 2013/11/27
 19 20  0  0  0  0  0  0  0  0999 V2000
   21.9625   22.7806   16.5110 C   0  0  0  0  0  0
   23.0951   22.3286   17.2237 C   0  0  0  0  0  0
   24.3488   22.3488   16.6210 C   0  0  0  0  0  0
   24.4680   22.8190   15.3120 C   0  0  0  0  0  0
   23.3343   23.2688   14.6084 C   0  0  0  0  0  0
   22.0819   23.2471   15.2135 C   0  0  0  0  0  0
   25.5687   21.8372   17.3569 C   0  0  0  0  0  0
   26.8660   22.3204   17.0590 C   0  0  0  0  0  0
   27.9923   21.8307   17.7883 C   0  0  0  0  0  0
   27.7908   20.8492   18.8191 C   0  0  0  0  0  0
   26.5099   20.3913   19.1030 C   0  0  0  0  0  0
   25.4071   20.8669   18.3866 C   0  0  0  0  0  0
   28.9608   20.2246   19.5511 C   0  0  0  0  0  0
   29.6739   21.2651   20.4114 C   0  0  0  0  0  0
   29.9194   19.6529   18.5071 C   0  0  0  0  0  0
   29.8141   19.9675   17.3474 O   0  0  0  0  0  0
   30.8433   18.7946   18.8499 O   0  0  0  0  0  0
   24.1724   20.3769   18.6766 F   0  0  0  0  0  0
   30.9376   18.5410   19.7470 H   0  0  0  0  0  0
  1  2  2  0  0  0
  2  3  1  0  0  0
  3  7  1  0  0  0
  4  3  2  0  0  0
  5  4  1  0  0  0
  6  5  2  0  0  0
  6  1  1  0  0  0
  7  8  2  0  0  0
  7 12  1  0  0  0
  8  9  1  0  0  0
  9 10  2  0  0  0
 10 13  1  0  0  0
 11 10  1  0  0  0
 12 11  2  0  0  0
 13 14  1  0  0  0
 15 17  1  0  0  0
 15 13  1  0  0  0
 16 15  2  0  0  0
 17 19  1  0  0  0
 18 12  1  0  0  0
M  END
>  <CHROM.0>
-177.12247726,7.85485528,73.12197162,52.77554059,64.30598992,15.13876331
-60.37810297

>  <CHROM.1>
-153.30372729,67.21415171,-1.61751433,14.47962221,26.35541948,21.31715032
17.69272005,2.62578543,0.16313139,-1.09975485

>  <FORMUL>
      FLP    C15 H13 F1 O2

>  <HET>
 FLP  A 701      18

>  <HETNAM>
     FLP FLURBIPROFEN

>  <Name>
FLP.pdb

>  <RI>
0

>  <Rbt.Current_Directory>
/home/malgorzata/Desktop/rDOCK_IFD/Wyniki/4a_COX2/IFD

>  <Rbt.Executable>
rbdock ($Id: //depot/dev/client3/rdock/2013.1/src/exe/rbdock.cxx#4 $)

>  <Rbt.Library>
libRbt.so (2013.1, Build901 2013/11/27)

>  <Rbt.Parameter_File>
/home/malgorzata/Desktop/rDock_2013.1_src/data/scripts/hard_docking.prm

>  <Rbt.Receptor>
cavity.prm

>  <SCORE>
-15.3533

>  <SCORE.INTER>
-6.57743

>  <SCORE.INTER.CONST>
1

>  <SCORE.INTER.POLAR>
0

>  <SCORE.INTER.REPUL>
0

>  <SCORE.INTER.ROT>
3

>  <SCORE.INTER.VDW>
-14.9774

>  <SCORE.INTER.norm>
-0.365413

>  <SCORE.INTRA>
-0.966024

>  <SCORE.INTRA.DIHEDRAL>
-2.77744

>  <SCORE.INTRA.DIHEDRAL.0>
5.47211

>  <SCORE.INTRA.POLAR>
0

>  <SCORE.INTRA.POLAR.0>
0

>  <SCORE.INTRA.REPUL>
0

>  <SCORE.INTRA.REPUL.0>
0

>  <SCORE.INTRA.VDW>
0.422696

>  <SCORE.INTRA.VDW.0>
0.722234

>  <SCORE.INTRA.norm>
-0.053668

>  <SCORE.RESTR>
0

>  <SCORE.RESTR.CAVITY>
0

>  <SCORE.RESTR.norm>
0

>  <SCORE.SYSTEM>
-7.80987

>  <SCORE.SYSTEM.CONST>
0

>  <SCORE.SYSTEM.DIHEDRAL>
1.70158

>  <SCORE.SYSTEM.POLAR>
-2.07255

>  <SCORE.SYSTEM.REPUL>
0.0199426

>  <SCORE.SYSTEM.VDW>
-1.7137

>  <SCORE.SYSTEM.norm>
-0.433882

>  <SCORE.heavy>
18

>  <SCORE.norm>
-0.852962

$$$$
FLP.pdb
  rDOCK(R)          3D
libRbt.so/2013.1/901 2013/11/27
 19 20  0  0  0  0  0  0  0  0999 V2000
   25.8863   24.8276   11.0599 C   0  0  0  0  0  0
   25.8913   24.2789   12.3613 C   0  0  0  0  0  0
   24.7609   23.6284   12.8454 C   0  0  0  0  0  0
   23.6316   23.5277   12.0310 C   0  0  0  0  0  0
   23.6346   24.0766   10.7343 C   0  0  0  0  0  0
   24.7664   24.7268   10.2531 C   0  0  0  0  0  0
   24.7358   23.0634   14.2496 C   0  0  0  0  0  0
   23.5667   23.1204   15.0465 C   0  0  0  0  0  0
   23.5728   22.5581   16.3595 C   0  0  0  0  0  0
   24.7722   21.9397   16.8548 C   0  0  0  0  0  0
   25.9084   21.8864   16.0565 C   0  0  0  0  0  0
   25.9047   22.4405   14.7726 C   0  0  0  0  0  0
   24.8613   21.4196   18.2749 C   0  0  0  0  0  0
   26.3025   21.4702   18.7764 C   0  0  0  0  0  0
   24.3474   19.9803   18.2831 C   0  0  0  0  0  0
   23.4269   19.6669   18.9969 O   0  0  0  0  0  0
   24.9159   19.0655   17.5431 O   0  0  0  0  0  0
   27.0430   22.3906   14.0307 F   0  0  0  0  0  0
   24.5828   18.1897   17.5425 H   0  0  0  0  0  0
  1  2  2  0  0  0
  2  3  1  0  0  0
  3  7  1  0  0  0
  4  3  2  0  0  0
  5  4  1  0  0  0
  6  5  2  0  0  0
  6  1  1  0  0  0
  7  8  2  0  0  0
  7 12  1  0  0  0
  8  9  1  0  0  0
  9 10  2  0  0  0
 10 13  1  0  0  0
 11 10  1  0  0  0
 12 11  2  0  0  0
 13 14  1  0  0  0
 15 17  1  0  0  0
 15 13  1  0  0  0
 16 15  2  0  0  0
 17 19  1  0  0  0
 18 12  1  0  0  0
M  END
>  <CHROM.0>
-179.98495915,5.61245328,-47.37697139,47.97380509,75.29787654,-177.96161450
-60.37810297

>  <CHROM.1>
142.45476277,-151.62606079,-178.80117916,-122.67218013,24.93039482,22.35081925
15.01109884,-1.54348012,0.08168708,2.08117825

>  <FORMUL>
      FLP    C15 H13 F1 O2

>  <HET>
 FLP  A 701      18

>  <HETNAM>
     FLP FLURBIPROFEN

>  <Name>
FLP.pdb

>  <RI>
0

>  <Rbt.Current_Directory>
/home/malgorzata/Desktop/rDOCK_IFD/Wyniki/4a_COX2/IFD

>  <Rbt.Executable>
rbdock ($Id: //depot/dev/client3/rdock/2013.1/src/exe/rbdock.cxx#4 $)

>  <Rbt.Library>
libRbt.so (2013.1, Build901 2013/11/27)

>  <Rbt.Parameter_File>
/home/malgorzata/Desktop/rDock_2013.1_src/data/scripts/hard_docking.prm

>  <Rbt.Receptor>
cavity.prm

>  <SCORE>
-21.8208

>  <SCORE.INTER>
-11.9029

>  <SCORE.INTER.CONST>
1

>  <SCORE.INTER.POLAR>
-0.88993

>  <SCORE.INTER.REPUL>
0

>  <SCORE.INTER.ROT>
3

>  <SCORE.INTER.VDW>
-17.2772

>  <SCORE.INTER.norm>
-0.661274

>  <SCORE.INTRA>
-0.0363128

>  <SCORE.INTRA.DIHEDRAL>
-2.2269

>  <SCORE.INTRA.DIHEDRAL.0>
5.47211

>  <SCORE.INTRA.POLAR>
0

>  <SCORE.INTRA.POLAR.0>
0

>  <SCORE.INTRA.REPUL>
0

>  <SCORE.INTRA.REPUL.0>
0

>  <SCORE.INTRA.VDW>
1.07714

>  <SCORE.INTRA.VDW.0>
0.722234

>  <SCORE.INTRA.norm>
-0.00201738

>  <SCORE.RESTR>
0

>  <SCORE.RESTR.CAVITY>
0

>  <SCORE.RESTR.norm>
0

>  <SCORE.SYSTEM>
-9.88152

>  <SCORE.SYSTEM.CONST>
0

>  <SCORE.SYSTEM.DIHEDRAL>
2.30219

>  <SCORE.SYSTEM.POLAR>
-2.73292

>  <SCORE.SYSTEM.VDW>
-1.74067

>  <SCORE.SYSTEM.norm>
-0.548973

>  <SCORE.heavy>
18

>  <SCORE.norm>
-1.21226

$$$$
FLP.pdb
  rDOCK(R)          3D
libRbt.so/2013.1/901 2013/11/27
 19 20  0  0  0  0  0  0  0  0999 V2000
   25.5036   17.9227   20.0007 C   0  0  0  0  0  0
   25.8148   18.9571   19.0908 C   0  0  0  0  0  0
   24.7928   19.6393   18.4384 C   0  0  0  0  0  0
   23.4666   19.2879   18.6957 C   0  0  0  0  0  0
   23.1643   18.2561   19.6049 C   0  0  0  0  0  0
   24.1884   17.5755   20.2554 C   0  0  0  0  0  0
   25.1077   20.7280   17.4348 C   0  0  0  0  0  0
   26.3457   20.7624   16.7483 C   0  0  0  0  0  0
   26.6004   21.7925   15.7921 C   0  0  0  0  0  0
   25.5908   22.7842   15.5400 C   0  0  0  0  0  0
   24.3787   22.7312   16.2176 C   0  0  0  0  0  0
   24.1301   21.7256   17.1571 C   0  0  0  0  0  0
   25.8498   23.9532   14.6119 C   0  0  0  0  0  0
   25.0090   23.8291   13.3435 C   0  0  0  0  0  0
   27.3377   23.9579   14.2632 C   0  0  0  0  0  0
   27.7021   23.6798   13.1475 O   0  0  0  0  0  0
   28.2347   24.2319   15.1733 O   0  0  0  0  0  0
   22.9418   21.7210   17.8178 F   0  0  0  0  0  0
   29.1462   24.1893   14.9605 H   0  0  0  0  0  0
  1  2  2  0  0  0
  2  3  1  0  0  0
  3  7  1  0  0  0
  4  3  2  0  0  0
  5  4  1  0  0  0
  6  5  2  0  0  0
  6  1  1  0  0  0
  7  8  2  0  0  0
  7 12  1  0  0  0
  8  9  1  0  0  0
  9 10  2  0  0  0
 10 13  1  0  0  0
 11 10  1  0  0  0
 12 11  2  0  0  0
 13 14  1  0  0  0
 15 17  1  0  0  0
 15 13  1  0  0  0
 16 15  2  0  0  0
 17 19  1  0  0  0
 18 12  1  0  0  0
M  END
>  <CHROM.0>
-178.26552638,-120.02226929,-47.27821135,47.62233429,62.39495465,-170.50948200
-60.37810297

>  <CHROM.1>
24.29370371,111.52714766,176.87244829,110.27844250,25.35944616,21.40550042
16.77890525,-1.91195224,0.13763455,-0.74245217

>  <FORMUL>
      FLP    C15 H13 F1 O2

>  <HET>
 FLP  A 701      18

>  <HETNAM>
     FLP FLURBIPROFEN

>  <Name>
FLP.pdb

>  <RI>
0

>  <Rbt.Current_Directory>
/home/malgorzata/Desktop/rDOCK_IFD/Wyniki/4a_COX2/IFD

>  <Rbt.Executable>
rbdock ($Id: //depot/dev/client3/rdock/2013.1/src/exe/rbdock.cxx#4 $)

>  <Rbt.Library>
libRbt.so (2013.1, Build901 2013/11/27)

>  <Rbt.Parameter_File>
/home/malgorzata/Desktop/rDock_2013.1_src/data/scripts/hard_docking.prm

>  <Rbt.Receptor>
cavity.prm

>  <SCORE>
-16.4654

>  <SCORE.INTER>
-10.1235

>  <SCORE.INTER.CONST>
1

>  <SCORE.INTER.POLAR>
-0.923598

>  <SCORE.INTER.REPUL>
0

>  <SCORE.INTER.ROT>
3

>  <SCORE.INTER.VDW>
-15.3833

>  <SCORE.INTER.norm>
-0.562417

>  <SCORE.INTRA>
0.0318492

>  <SCORE.INTRA.DIHEDRAL>
-3.02012

>  <SCORE.INTRA.DIHEDRAL.0>
5.47211

>  <SCORE.INTRA.POLAR>
0

>  <SCORE.INTRA.POLAR.0>
0

>  <SCORE.INTRA.REPUL>
0

>  <SCORE.INTRA.REPUL.0>
0

>  <SCORE.INTRA.VDW>
1.54191

>  <SCORE.INTRA.VDW.0>
0.722234

>  <SCORE.INTRA.norm>
0.0017694

>  <SCORE.RESTR>
0

>  <SCORE.RESTR.CAVITY>
0

>  <SCORE.RESTR.norm>
0

>  <SCORE.SYSTEM>
-6.37377

>  <SCORE.SYSTEM.CONST>
0

>  <SCORE.SYSTEM.DIHEDRAL>
4.81974

>  <SCORE.SYSTEM.POLAR>
-1.95076

>  <SCORE.SYSTEM.VDW>
-2.15105

>  <SCORE.SYSTEM.norm>
-0.354099

>  <SCORE.heavy>
18

>  <SCORE.norm>
-0.914746

$$$$
