TOL.pdb
  rDOCK(R)          3D
libRbt.so/2013.1/901 2013/11/27
 25 26  0  0  0  0  0  0  0  0999 V2000
   23.7276   28.6075   73.2617 C   0  0  0  0  0  0
   24.1566   29.8139   72.8133 F   0  0  0  0  0  0
   24.8300   27.8255   73.4078 F   0  0  0  0  0  0
   23.1915   28.7841   74.4987 F   0  0  0  0  0  0
   22.6938   27.9794   72.3021 C   0  0  0  0  0  0
   22.8950   26.7533   71.6163 C   0  0  0  0  0  0
   24.0217   26.0857   71.7873 O   0  0  0  0  0  0
   23.8287   24.8249   72.4070 C   0  0  0  0  0  0
   21.8854   26.2674   70.7567 C   0  0  0  0  0  0
   20.6942   26.9793   70.5761 C   0  0  0  0  0  0
   20.4918   28.1980   71.2533 C   0  0  0  0  0  0
   19.2839   28.9086   71.0612 C   0  0  0  0  0  0
   19.0822   30.1229   71.7375 C   0  0  0  0  0  0
   20.0648   30.6280   72.5921 C   0  0  0  0  0  0
   21.2588   29.9204   72.7797 C   0  0  0  0  0  0
   21.4853   28.7012   72.1144 C   0  0  0  0  0  0
   18.1690   28.4370   70.1575 C   0  0  0  0  0  0
   16.9601   27.3961   70.7830 S   0  0  0  0  0  0
   18.1312   28.8478   68.8890 N   0  0  0  0  0  0
   19.1107   29.8175   68.4114 C   0  0  0  0  0  0
   17.1162   28.3653   67.9580 C   0  0  0  0  0  0
   16.1354   29.4818   67.5608 C   0  0  0  0  0  0
   15.9638   29.8084   66.4158 O   0  0  0  0  0  0
   15.4817   30.0587   68.5753 O   0  0  0  0  0  0
   15.7700   29.9223   69.4563 H   0  0  0  0  0  0
  1  2  1  0  0  0
  1  3  1  0  0  0
  1  4  1  0  0  0
  1  5  1  0  0  0
  5  6  2  0  0  0
  5 16  1  0  0  0
  6  7  1  0  0  0
  6  9  1  0  0  0
  7  8  1  0  0  0
  9 10  2  0  0  0
 10 11  1  0  0  0
 11 12  2  0  0  0
 11 16  1  0  0  0
 12 13  1  0  0  0
 12 17  1  0  0  0
 13 14  2  0  0  0
 14 15  1  0  0  0
 15 16  2  0  0  0
 17 18  2  0  0  0
 17 19  1  0  0  0
 19 20  1  0  0  0
 19 21  1  0  0  0
 21 22  1  0  0  0
 22 23  2  0  0  0
 22 24  1  0  0  0
 24 25  1  0  0  0
M  END
>  <CHROM.0>
-0.90377692,0.63295654,144.85565310,-171.60659384,-53.99160094,-177.43654169
60.37066911,159.41687194,-61.18859492,-61.54190337,-38.36868631,-61.41326028
-60.50081437,174.46955098

>  <CHROM.1>
117.67642513,115.50783135,88.00734552,111.80317231,122.29852741,14.03949244
20.36988308,28.40379213,71.02617001,0.07517843,-0.58092180,0.44400776

>  <FORMUL>
      TOL    C16 H14 F3 N1 O3 S1

>  <HET>
 TOL  A 320      24

>  <HETNAM>
     TOL TOLRESTAT

>  <Name>
TOL.pdb

>  <RI>
0

>  <Rbt.Current_Directory>
/home/malgorzata/Desktop/rDOCK_IFD/Wyniki/1_aldose_reductase

>  <Rbt.Executable>
rbdock ($Id: //depot/dev/client3/rdock/2013.1/src/exe/rbdock.cxx#4 $)

>  <Rbt.Library>
libRbt.so (2013.1, Build901 2013/11/27)

>  <Rbt.Parameter_File>
/home/malgorzata/Desktop/rDock_2013.1_src/data/scripts/soft_docking.prm

>  <Rbt.Receptor>
cavity.prm

>  <SCORE>
-45.9582

>  <SCORE.INTER>
-34.6986

>  <SCORE.INTER.CONST>
1

>  <SCORE.INTER.POLAR>
-1.78208

>  <SCORE.INTER.REPUL>
0.0748578

>  <SCORE.INTER.ROT>
5

>  <SCORE.INTER.VDW>
-39.4138

>  <SCORE.INTER.norm>
-1.44577

>  <SCORE.INTRA>
-5.57947

>  <SCORE.INTRA.DIHEDRAL>
5.52514

>  <SCORE.INTRA.DIHEDRAL.0>
16.9783

>  <SCORE.INTRA.POLAR>
0

>  <SCORE.INTRA.POLAR.0>
0

>  <SCORE.INTRA.REPUL>
0

>  <SCORE.INTRA.REPUL.0>
0

>  <SCORE.INTRA.VDW>
-6.6845

>  <SCORE.INTRA.VDW.0>
4.87734

>  <SCORE.INTRA.norm>
-0.232478

>  <SCORE.RESTR>
0.117564

>  <SCORE.RESTR.CAVITY>
0.117564

>  <SCORE.RESTR.norm>
0.00489849

>  <SCORE.SYSTEM>
-5.79773

>  <SCORE.SYSTEM.CONST>
0

>  <SCORE.SYSTEM.DIHEDRAL>
11.3965

>  <SCORE.SYSTEM.POLAR>
-3.30938

>  <SCORE.SYSTEM.REPUL>
1.16943

>  <SCORE.SYSTEM.VDW>
-6.09123

>  <SCORE.SYSTEM.norm>
-0.241572

>  <SCORE.heavy>
24

>  <SCORE.norm>
-1.91493
