OHT.pdb
  rDOCK(R)          3D
libRbt.so/2013.1/901 2013/11/27
 30 32  0  0  0  0  0  0  0  0999 V2000
   64.6734   35.6836   71.8580 C   0  0  0  0  0  0
   65.5195   35.4242   70.6419 C   0  0  0  0  0  0
   66.6259   34.4267   70.9161 C   0  0  0  0  0  0
   66.4069   33.0960   70.2714 C   0  0  0  0  0  0
   67.4530   32.4518   69.5773 C   0  0  0  0  0  0
   67.2610   31.1880   69.0183 C   0  0  0  0  0  0
   66.0467   30.5392   69.1267 C   0  0  0  0  0  0
   65.0162   31.1527   69.7982 C   0  0  0  0  0  0
   65.1969   32.4194   70.3651 C   0  0  0  0  0  0
   67.7157   34.7269   71.6821 C   0  0  0  0  0  0
   68.6852   35.8391   71.3651 C   0  0  0  0  0  0
   68.2509   37.0801   70.8033 C   0  0  0  0  0  0
   69.1791   38.0769   70.4697 C   0  0  0  0  0  0
   70.5490   37.8432   70.6943 C   0  0  0  0  0  0
   71.4333   38.8191   70.3432 O   0  0  0  0  0  0
   70.9896   36.6214   71.2520 C   0  0  0  0  0  0
   70.0541   35.6464   71.5744 C   0  0  0  0  0  0
   68.0595   33.9749   72.8927 C   0  0  0  0  0  0
   68.0167   32.5831   72.9251 C   0  0  0  0  0  0
   68.3574   31.8646   74.0363 C   0  0  0  0  0  0
   68.7652   32.5315   75.1804 C   0  0  0  0  0  0
   69.1574   31.8899   76.3202 O   0  0  0  0  0  0
   69.9017   32.5927   77.3106 C   0  0  0  0  0  0
   70.3545   31.5667   78.3139 C   0  0  0  0  0  0
   69.2737   30.8649   78.9503 N   0  0  0  0  0  0
   69.5400   29.4285   79.0402 C   0  0  0  0  0  0
   69.0872   31.3806   80.3113 C   0  0  0  0  0  0
   68.8177   33.9362   75.1853 C   0  0  0  0  0  0
   68.4716   34.6311   74.0605 C   0  0  0  0  0  0
   71.3650   39.6725   70.7242 H   0  0  0  0  0  0
  1  2  1  0  0  0
  2  3  1  0  0  0
  3  4  1  0  0  0
  3 10  1  0  0  0
  4  5  2  0  0  0
  4  9  1  0  0  0
  5  6  1  0  0  0
  6  7  2  0  0  0
  7  8  1  0  0  0
  8  9  2  0  0  0
 10 11  1  0  0  0
 10 18  1  0  0  0
 11 12  2  0  0  0
 11 17  1  0  0  0
 12 13  1  0  0  0
 13 14  2  0  0  0
 14 15  1  0  0  0
 14 16  1  0  0  0
 15 30  1  0  0  0
 16 17  2  0  0  0
 18 19  2  0  0  0
 18 29  1  0  0  0
 19 20  1  0  0  0
 20 21  2  0  0  0
 21 22  1  0  0  0
 21 28  1  0  0  0
 22 23  1  0  0  0
 23 24  1  0  0  0
 24 25  1  0  0  0
 25 26  1  0  0  0
 25 27  1  0  0  0
 28 29  2  0  0  0
M  END
>  <CHROM.0>
-80.78908971,-58.61099511,-97.63506129,-49.11449433

>  <CHROM.1>
108.43685844,134.12048416,-59.51475716,36.74675575,44.36599778,59.02827471
162.65391090,-171.32856923,-59.89072628,136.41577742,68.27090405,33.72617544
73.01738763,1.83107020,-0.87256592,-0.89043253

>  <FORMUL>
      OHT    C26 H29 N1 O2

>  <HET>
 OHT  A 600      29

>  <HETNAM>
     OHT 4-HYDROXYTAMOXIFEN

>  <Name>
OHT.pdb

>  <RI>
0

>  <Rbt.Current_Directory>
/home/malgorzata/Desktop/rDOCK_IFD/test5

>  <Rbt.Executable>
rbdock ($Id: //depot/dev/client3/rdock/2013.1/src/exe/rbdock.cxx#4 $)

>  <Rbt.Library>
libRbt.so (2013.1, Build901 2013/11/27)

>  <Rbt.Parameter_File>
/home/malgorzata/Desktop/rDock_2013.1_src/data/scripts/soft_docking.prm

>  <Rbt.Receptor>
cavity.prm

>  <SCORE>
-83.301

>  <SCORE.INTER>
-23.6699

>  <SCORE.INTER.CONST>
1

>  <SCORE.INTER.POLAR>
-1.11996

>  <SCORE.INTER.REPUL>
0.212321

>  <SCORE.INTER.ROT>
9

>  <SCORE.INTER.VDW>
-35.3237

>  <SCORE.INTER.norm>
-0.816204

>  <SCORE.INTRA>
-0.909172

>  <SCORE.INTRA.DIHEDRAL>
-2.39578

>  <SCORE.INTRA.DIHEDRAL.0>
14.7815

>  <SCORE.INTRA.POLAR>
0

>  <SCORE.INTRA.POLAR.0>
0

>  <SCORE.INTRA.REPUL>
0

>  <SCORE.INTRA.REPUL.0>
0

>  <SCORE.INTRA.VDW>
-0.430016

>  <SCORE.INTRA.VDW.0>
-0.0652974

>  <SCORE.INTRA.norm>
-0.0313507

>  <SCORE.RESTR>
0.354706

>  <SCORE.RESTR.CAVITY>
0.354706

>  <SCORE.RESTR.norm>
0.0122312

>  <SCORE.SYSTEM>
-59.0766

>  <SCORE.SYSTEM.CONST>
0

>  <SCORE.SYSTEM.DIHEDRAL>
3.65432

>  <SCORE.SYSTEM.POLAR>
-0.290627

>  <SCORE.SYSTEM.REPUL>
0.0530982

>  <SCORE.SYSTEM.VDW>
-60.1811

>  <SCORE.SYSTEM.norm>
-2.03712

>  <SCORE.heavy>
29

>  <SCORE.norm>
-2.87245

$$$$
OHT.pdb
  rDOCK(R)          3D
libRbt.so/2013.1/901 2013/11/27
 30 32  0  0  0  0  0  0  0  0999 V2000
   64.7439   34.1918   74.1172 C   0  0  0  0  0  0
   65.1607   33.3794   72.9220 C   0  0  0  0  0  0
   66.6549   33.4400   72.6812 C   0  0  0  0  0  0
   67.4628   33.4997   73.9375 C   0  0  0  0  0  0
   67.4147   32.4461   74.8748 C   0  0  0  0  0  0
   68.2066   32.4810   76.0229 C   0  0  0  0  0  0
   69.0519   33.5444   76.2721 C   0  0  0  0  0  0
   69.1104   34.5801   75.3702 C   0  0  0  0  0  0
   68.3225   34.5558   74.2139 C   0  0  0  0  0  0
   67.2003   33.4397   71.4294 C   0  0  0  0  0  0
   66.9624   32.3533   70.4093 C   0  0  0  0  0  0
   66.7172   30.9984   70.7945 C   0  0  0  0  0  0
   66.5514   29.9990   69.8249 C   0  0  0  0  0  0
   66.6287   30.3438   68.4623 C   0  0  0  0  0  0
   66.4843   29.3515   67.5391 O   0  0  0  0  0  0
   66.8677   31.6805   68.0697 C   0  0  0  0  0  0
   67.0304   32.6554   69.0459 C   0  0  0  0  0  0
   68.0941   34.5022   70.9588 C   0  0  0  0  0  0
   67.7776   35.8487   71.1219 C   0  0  0  0  0  0
   68.6095   36.8523   70.7121 C   0  0  0  0  0  0
   69.8175   36.5341   70.1127 C   0  0  0  0  0  0
   70.7219   37.4737   69.7079 O   0  0  0  0  0  0
   70.6067   38.8160   70.1703 C   0  0  0  0  0  0
   69.8499   39.5703   69.1108 C   0  0  0  0  0  0
   68.4622   39.2065   69.0228 N   0  0  0  0  0  0
   67.5920   40.3831   69.0462 C   0  0  0  0  0  0
   68.2220   38.4861   67.7672 C   0  0  0  0  0  0
   70.1688   35.1855   69.9289 C   0  0  0  0  0  0
   69.3188   34.2007   70.3477 C   0  0  0  0  0  0
   65.7130   29.3140   67.0084 H   0  0  0  0  0  0
  1  2  1  0  0  0
  2  3  1  0  0  0
  3  4  1  0  0  0
  3 10  1  0  0  0
  4  5  2  0  0  0
  4  9  1  0  0  0
  5  6  1  0  0  0
  6  7  2  0  0  0
  7  8  1  0  0  0
  8  9  2  0  0  0
 10 11  1  0  0  0
 10 18  1  0  0  0
 11 12  2  0  0  0
 11 17  1  0  0  0
 12 13  1  0  0  0
 13 14  2  0  0  0
 14 15  1  0  0  0
 14 16  1  0  0  0
 15 30  1  0  0  0
 16 17  2  0  0  0
 18 19  2  0  0  0
 18 29  1  0  0  0
 19 20  1  0  0  0
 20 21  2  0  0  0
 21 22  1  0  0  0
 21 28  1  0  0  0
 22 23  1  0  0  0
 23 24  1  0  0  0
 24 25  1  0  0  0
 25 26  1  0  0  0
 25 27  1  0  0  0
 28 29  2  0  0  0
M  END
>  <CHROM.0>
-157.50897827,-60.70262667,-71.99181574,-4.36915891

>  <CHROM.1>
35.39244473,61.68362778,-57.32811005,-30.39676742,-47.99947997,109.69842257
15.02675389,-95.42899860,70.39151920,129.58797142,67.92039732,34.54963433
71.10532362,-2.73563524,-1.22440030,-1.48470984

>  <FORMUL>
      OHT    C26 H29 N1 O2

>  <HET>
 OHT  A 600      29

>  <HETNAM>
     OHT 4-HYDROXYTAMOXIFEN

>  <Name>
OHT.pdb

>  <RI>
0

>  <Rbt.Current_Directory>
/home/malgorzata/Desktop/rDOCK_IFD/test5

>  <Rbt.Executable>
rbdock ($Id: //depot/dev/client3/rdock/2013.1/src/exe/rbdock.cxx#4 $)

>  <Rbt.Library>
libRbt.so (2013.1, Build901 2013/11/27)

>  <Rbt.Parameter_File>
/home/malgorzata/Desktop/rDock_2013.1_src/data/scripts/soft_docking.prm

>  <Rbt.Receptor>
cavity.prm

>  <SCORE>
-77.9278

>  <SCORE.INTER>
-16.0952

>  <SCORE.INTER.CONST>
1

>  <SCORE.INTER.POLAR>
-1.37267

>  <SCORE.INTER.REPUL>
0.330336

>  <SCORE.INTER.ROT>
9

>  <SCORE.INTER.VDW>
-27.4798

>  <SCORE.INTER.norm>
-0.555007

>  <SCORE.INTRA>
0.160708

>  <SCORE.INTRA.DIHEDRAL>
4.63961

>  <SCORE.INTRA.DIHEDRAL.0>
14.7815

>  <SCORE.INTRA.POLAR>
0

>  <SCORE.INTRA.POLAR.0>
0

>  <SCORE.INTRA.REPUL>
0

>  <SCORE.INTRA.REPUL.0>
0

>  <SCORE.INTRA.VDW>
-0.767213

>  <SCORE.INTRA.VDW.0>
-0.0652974

>  <SCORE.INTRA.norm>
0.00554166

>  <SCORE.RESTR>
0.121976

>  <SCORE.RESTR.CAVITY>
0.121976

>  <SCORE.RESTR.norm>
0.00420607

>  <SCORE.SYSTEM>
-62.1153

>  <SCORE.SYSTEM.CONST>
0

>  <SCORE.SYSTEM.DIHEDRAL>
0.974548

>  <SCORE.SYSTEM.POLAR>
-0.179493

>  <SCORE.SYSTEM.REPUL>
0.13362

>  <SCORE.SYSTEM.VDW>
-62.6604

>  <SCORE.SYSTEM.norm>
-2.14191

>  <SCORE.heavy>
29

>  <SCORE.norm>
-2.68717

$$$$
OHT.pdb
  rDOCK(R)          3D
libRbt.so/2013.1/901 2013/11/27
 30 32  0  0  0  0  0  0  0  0999 V2000
   64.4853   32.1615   75.3421 C   0  0  0  0  0  0
   64.3091   32.6357   73.9257 C   0  0  0  0  0  0
   65.4136   32.1417   73.0147 C   0  0  0  0  0  0
   65.0777   30.8736   72.2980 C   0  0  0  0  0  0
   64.7229   29.7127   73.0175 C   0  0  0  0  0  0
   64.3622   28.5442   72.3459 C   0  0  0  0  0  0
   64.3463   28.4928   70.9659 C   0  0  0  0  0  0
   64.6904   29.6141   70.2491 C   0  0  0  0  0  0
   65.0521   30.7928   70.9111 C   0  0  0  0  0  0
   66.6003   32.8016   72.8703 C   0  0  0  0  0  0
   67.9073   32.3169   73.4485 C   0  0  0  0  0  0
   68.5868   31.1745   72.9218 C   0  0  0  0  0  0
   69.7730   30.7143   73.5114 C   0  0  0  0  0  0
   70.2911   31.3909   74.6319 C   0  0  0  0  0  0
   71.4342   30.9127   75.1995 O   0  0  0  0  0  0
   69.6295   32.5232   75.1593 C   0  0  0  0  0  0
   68.4550   32.9623   74.5613 C   0  0  0  0  0  0
   66.7137   34.0696   72.1432 C   0  0  0  0  0  0
   66.4887   34.1475   70.7709 C   0  0  0  0  0  0
   66.5655   35.3244   70.0809 C   0  0  0  0  0  0
   66.8753   36.4926   70.7585 C   0  0  0  0  0  0
   66.9361   37.7148   70.1526 O   0  0  0  0  0  0
   66.5940   37.8430   68.7759 C   0  0  0  0  0  0
   67.7414   38.5574   68.1145 C   0  0  0  0  0  0
   68.9053   37.7345   67.9304 N   0  0  0  0  0  0
   69.9328   38.4188   67.1442 C   0  0  0  0  0  0
   69.4800   37.3972   69.2377 C   0  0  0  0  0  0
   67.1117   36.4515   72.1435 C   0  0  0  0  0  0
   67.0286   35.2613   72.8101 C   0  0  0  0  0  0
   71.4757   30.7756   76.1255 H   0  0  0  0  0  0
  1  2  1  0  0  0
  2  3  1  0  0  0
  3  4  1  0  0  0
  3 10  1  0  0  0
  4  5  2  0  0  0
  4  9  1  0  0  0
  5  6  1  0  0  0
  6  7  2  0  0  0
  7  8  1  0  0  0
  8  9  2  0  0  0
 10 11  1  0  0  0
 10 18  1  0  0  0
 11 12  2  0  0  0
 11 17  1  0  0  0
 12 13  1  0  0  0
 13 14  2  0  0  0
 14 15  1  0  0  0
 14 16  1  0  0  0
 15 30  1  0  0  0
 16 17  2  0  0  0
 18 19  2  0  0  0
 18 29  1  0  0  0
 19 20  1  0  0  0
 20 21  2  0  0  0
 21 22  1  0  0  0
 21 28  1  0  0  0
 22 23  1  0  0  0
 23 24  1  0  0  0
 24 25  1  0  0  0
 25 26  1  0  0  0
 25 27  1  0  0  0
 28 29  2  0  0  0
M  END
>  <CHROM.0>
-177.93052569,-62.56096880,-2.18638221,77.31708821

>  <CHROM.1>
93.96466013,-57.24602669,107.06955922,71.18357055,-66.06950328,-130.57808915
3.85133915,-128.04441599,74.37387355,173.19250920,67.13782071,33.50543412
71.84756980,1.79708785,0.48036738,2.48550311

>  <FORMUL>
      OHT    C26 H29 N1 O2

>  <HET>
 OHT  A 600      29

>  <HETNAM>
     OHT 4-HYDROXYTAMOXIFEN

>  <Name>
OHT.pdb

>  <RI>
0

>  <Rbt.Current_Directory>
/home/malgorzata/Desktop/rDOCK_IFD/test5

>  <Rbt.Executable>
rbdock ($Id: //depot/dev/client3/rdock/2013.1/src/exe/rbdock.cxx#4 $)

>  <Rbt.Library>
libRbt.so (2013.1, Build901 2013/11/27)

>  <Rbt.Parameter_File>
/home/malgorzata/Desktop/rDock_2013.1_src/data/scripts/soft_docking.prm

>  <Rbt.Receptor>
cavity.prm

>  <SCORE>
-75.4719

>  <SCORE.INTER>
-22.1608

>  <SCORE.INTER.CONST>
1

>  <SCORE.INTER.POLAR>
-0.598736

>  <SCORE.INTER.REPUL>
0

>  <SCORE.INTER.ROT>
9

>  <SCORE.INTER.VDW>
-34.5251

>  <SCORE.INTER.norm>
-0.764164

>  <SCORE.INTRA>
0.533026

>  <SCORE.INTRA.DIHEDRAL>
3.17178

>  <SCORE.INTRA.DIHEDRAL.0>
14.7815

>  <SCORE.INTRA.POLAR>
0

>  <SCORE.INTRA.POLAR.0>
0

>  <SCORE.INTRA.REPUL>
0

>  <SCORE.INTRA.REPUL.0>
0

>  <SCORE.INTRA.VDW>
-0.10133

>  <SCORE.INTRA.VDW.0>
-0.0652974

>  <SCORE.INTRA.norm>
0.0183802

>  <SCORE.RESTR>
1.35558

>  <SCORE.RESTR.CAVITY>
1.35558

>  <SCORE.RESTR.norm>
0.0467443

>  <SCORE.SYSTEM>
-55.1997

>  <SCORE.SYSTEM.CONST>
0

>  <SCORE.SYSTEM.DIHEDRAL>
5.53553

>  <SCORE.SYSTEM.POLAR>
-0.0690321

>  <SCORE.SYSTEM.REPUL>
0.690715

>  <SCORE.SYSTEM.VDW>
-61.1863

>  <SCORE.SYSTEM.norm>
-1.90344

>  <SCORE.heavy>
29

>  <SCORE.norm>
-2.60248

$$$$
OHT.pdb
  rDOCK(R)          3D
libRbt.so/2013.1/901 2013/11/27
 30 32  0  0  0  0  0  0  0  0999 V2000
   65.9916   35.8074   68.8981 C   0  0  0  0  0  0
   65.4035   35.4254   70.2287 C   0  0  0  0  0  0
   66.3308   34.5359   71.0305 C   0  0  0  0  0  0
   65.8125   33.1469   71.2220 C   0  0  0  0  0  0
   64.5398   32.9257   71.7898 C   0  0  0  0  0  0
   64.0374   31.6308   71.9225 C   0  0  0  0  0  0
   64.7708   30.5371   71.5064 C   0  0  0  0  0  0
   66.0132   30.7342   70.9522 C   0  0  0  0  0  0
   66.5273   32.0281   70.8118 C   0  0  0  0  0  0
   67.5254   34.9735   71.5267 C   0  0  0  0  0  0
   68.5437   35.7364   70.7153 C   0  0  0  0  0  0
   68.3638   37.1158   70.3851 C   0  0  0  0  0  0
   69.3002   37.7868   69.5854 C   0  0  0  0  0  0
   70.4244   37.0863   69.1088 C   0  0  0  0  0  0
   71.3098   37.7546   68.3169 O   0  0  0  0  0  0
   70.6140   35.7232   69.4314 C   0  0  0  0  0  0
   69.6741   35.0765   70.2239 C   0  0  0  0  0  0
   67.9429   34.7248   72.9099 C   0  0  0  0  0  0
   68.8521   33.7190   73.2289 C   0  0  0  0  0  0
   69.2717   33.4888   74.5088 C   0  0  0  0  0  0
   68.7853   34.2790   75.5379 C   0  0  0  0  0  0
   69.1799   34.1402   76.8377 O   0  0  0  0  0  0
   68.6381   34.9956   77.8397 C   0  0  0  0  0  0
   69.2192   34.5404   79.1510 C   0  0  0  0  0  0
   68.3224   33.7320   79.9306 N   0  0  0  0  0  0
   69.0290   33.0035   80.9852 C   0  0  0  0  0  0
   67.3143   34.5892   80.5649 C   0  0  0  0  0  0
   67.8639   35.3018   75.2536 C   0  0  0  0  0  0
   67.4603   35.5112   73.9647 C   0  0  0  0  0  0
   71.3611   37.5582   67.4021 H   0  0  0  0  0  0
  1  2  1  0  0  0
  2  3  1  0  0  0
  3  4  1  0  0  0
  3 10  1  0  0  0
  4  5  2  0  0  0
  4  9  1  0  0  0
  5  6  1  0  0  0
  6  7  2  0  0  0
  7  8  1  0  0  0
  8  9  2  0  0  0
 10 11  1  0  0  0
 10 18  1  0  0  0
 11 12  2  0  0  0
 11 17  1  0  0  0
 12 13  1  0  0  0
 13 14  2  0  0  0
 14 15  1  0  0  0
 14 16  1  0  0  0
 15 30  1  0  0  0
 16 17  2  0  0  0
 18 19  2  0  0  0
 18 29  1  0  0  0
 19 20  1  0  0  0
 20 21  2  0  0  0
 21 22  1  0  0  0
 21 28  1  0  0  0
 22 23  1  0  0  0
 23 24  1  0  0  0
 24 25  1  0  0  0
 25 26  1  0  0  0
 25 27  1  0  0  0
 28 29  2  0  0  0
M  END
>  <CHROM.0>
66.92048077,-57.96185471,-72.34855168,-8.32443986

>  <CHROM.1>
-113.13613528,-55.02440296,-47.87028191,75.36590424,101.31282293,-108.53812305
179.72293743,177.23074588,-100.95561130,163.62366104,67.86437348,34.50994063
73.13711902,1.61955641,-0.73497640,-1.37865494

>  <FORMUL>
      OHT    C26 H29 N1 O2

>  <HET>
 OHT  A 600      29

>  <HETNAM>
     OHT 4-HYDROXYTAMOXIFEN

>  <Name>
OHT.pdb

>  <RI>
0

>  <Rbt.Current_Directory>
/home/malgorzata/Desktop/rDOCK_IFD/test5

>  <Rbt.Executable>
rbdock ($Id: //depot/dev/client3/rdock/2013.1/src/exe/rbdock.cxx#4 $)

>  <Rbt.Library>
libRbt.so (2013.1, Build901 2013/11/27)

>  <Rbt.Parameter_File>
/home/malgorzata/Desktop/rDock_2013.1_src/data/scripts/soft_docking.prm

>  <Rbt.Receptor>
cavity.prm

>  <SCORE>
-77.1676

>  <SCORE.INTER>
-18.7981

>  <SCORE.INTER.CONST>
1

>  <SCORE.INTER.POLAR>
-0.61506

>  <SCORE.INTER.REPUL>
0

>  <SCORE.INTER.ROT>
9

>  <SCORE.INTER.VDW>
-31.1069

>  <SCORE.INTER.norm>
-0.64821

>  <SCORE.INTRA>
0.407828

>  <SCORE.INTRA.DIHEDRAL>
0.290115

>  <SCORE.INTRA.DIHEDRAL.0>
14.7815

>  <SCORE.INTRA.POLAR>
0

>  <SCORE.INTRA.POLAR.0>
0

>  <SCORE.INTRA.REPUL>
0

>  <SCORE.INTRA.REPUL.0>
0

>  <SCORE.INTRA.VDW>
0.349805

>  <SCORE.INTRA.VDW.0>
-0.0652974

>  <SCORE.INTRA.norm>
0.014063

>  <SCORE.RESTR>
0.165106

>  <SCORE.RESTR.CAVITY>
0.165106

>  <SCORE.RESTR.norm>
0.00569332

>  <SCORE.SYSTEM>
-58.9424

>  <SCORE.SYSTEM.CONST>
0

>  <SCORE.SYSTEM.DIHEDRAL>
1.05171

>  <SCORE.SYSTEM.POLAR>
-0.296607

>  <SCORE.SYSTEM.REPUL>
0.0242942

>  <SCORE.SYSTEM.VDW>
-58.5813

>  <SCORE.SYSTEM.norm>
-2.0325

>  <SCORE.heavy>
29

>  <SCORE.norm>
-2.66095

$$$$
OHT.pdb
  rDOCK(R)          3D
libRbt.so/2013.1/901 2013/11/27
 30 32  0  0  0  0  0  0  0  0999 V2000
   68.0102   33.0088   69.7579 C   0  0  0  0  0  0
   68.4541   32.6609   71.1521 C   0  0  0  0  0  0
   67.4715   33.1373   72.2017 C   0  0  0  0  0  0
   66.2810   32.2467   72.3569 C   0  0  0  0  0  0
   64.9829   32.7262   72.0812 C   0  0  0  0  0  0
   63.8781   31.8797   72.1793 C   0  0  0  0  0  0
   64.0256   30.5576   72.5500 C   0  0  0  0  0  0
   65.2829   30.0741   72.8236 C   0  0  0  0  0  0
   66.3992   30.9125   72.7268 C   0  0  0  0  0  0
   67.6661   34.2753   72.9310 C   0  0  0  0  0  0
   67.8249   35.6469   72.3220 C   0  0  0  0  0  0
   66.8250   36.2144   71.4721 C   0  0  0  0  0  0
   67.0213   37.4690   70.8772 C   0  0  0  0  0  0
   68.2177   38.1679   71.1260 C   0  0  0  0  0  0
   68.3939   39.3762   70.5205 O   0  0  0  0  0  0
   69.2119   37.6180   71.9669 C   0  0  0  0  0  0
   68.9984   36.3732   72.5455 C   0  0  0  0  0  0
   67.7567   34.2679   74.3942 C   0  0  0  0  0  0
   68.9813   34.1667   75.0499 C   0  0  0  0  0  0
   69.0873   34.1831   76.4121 C   0  0  0  0  0  0
   67.9428   34.3071   77.1832 C   0  0  0  0  0  0
   67.9631   34.3687   78.5472 O   0  0  0  0  0  0
   68.2661   33.2023   79.3065 C   0  0  0  0  0  0
   69.7330   32.9315   79.1081 C   0  0  0  0  0  0
   70.0681   31.5339   79.1127 N   0  0  0  0  0  0
   70.8560   31.1627   77.9365 C   0  0  0  0  0  0
   70.8593   31.2226   80.3087 C   0  0  0  0  0  0
   66.6890   34.4085   76.5558 C   0  0  0  0  0  0
   66.6105   34.3895   75.1915 C   0  0  0  0  0  0
   68.7917   40.0823   70.9907 H   0  0  0  0  0  0
  1  2  1  0  0  0
  2  3  1  0  0  0
  3  4  1  0  0  0
  3 10  1  0  0  0
  4  5  2  0  0  0
  4  9  1  0  0  0
  5  6  1  0  0  0
  6  7  2  0  0  0
  7  8  1  0  0  0
  8  9  2  0  0  0
 10 11  1  0  0  0
 10 18  1  0  0  0
 11 12  2  0  0  0
 11 17  1  0  0  0
 12 13  1  0  0  0
 13 14  2  0  0  0
 14 15  1  0  0  0
 14 16  1  0  0  0
 15 30  1  0  0  0
 16 17  2  0  0  0
 18 19  2  0  0  0
 18 29  1  0  0  0
 19 20  1  0  0  0
 20 21  2  0  0  0
 21 22  1  0  0  0
 21 28  1  0  0  0
 22 23  1  0  0  0
 23 24  1  0  0  0
 24 25  1  0  0  0
 25 26  1  0  0  0
 25 27  1  0  0  0
 28 29  2  0  0  0
M  END
>  <CHROM.0>
3.45188024,-57.15502526,41.03133907,-160.42817281

>  <CHROM.1>
79.62185031,-117.49476585,58.76155605,57.43936888,92.72991041,140.33601306
-71.89272567,71.24763391,-146.64962069,128.33794467,67.77566656,33.88163021
74.22775897,2.03313605,-0.97270698,-0.78140971

>  <FORMUL>
      OHT    C26 H29 N1 O2

>  <HET>
 OHT  A 600      29

>  <HETNAM>
     OHT 4-HYDROXYTAMOXIFEN

>  <Name>
OHT.pdb

>  <RI>
0

>  <Rbt.Current_Directory>
/home/malgorzata/Desktop/rDOCK_IFD/test5

>  <Rbt.Executable>
rbdock ($Id: //depot/dev/client3/rdock/2013.1/src/exe/rbdock.cxx#4 $)

>  <Rbt.Library>
libRbt.so (2013.1, Build901 2013/11/27)

>  <Rbt.Parameter_File>
/home/malgorzata/Desktop/rDock_2013.1_src/data/scripts/soft_docking.prm

>  <Rbt.Receptor>
cavity.prm

>  <SCORE>
-80.9407

>  <SCORE.INTER>
-21.8358

>  <SCORE.INTER.CONST>
1

>  <SCORE.INTER.POLAR>
-1.2194

>  <SCORE.INTER.REPUL>
0

>  <SCORE.INTER.ROT>
9

>  <SCORE.INTER.VDW>
-32.0899

>  <SCORE.INTER.norm>
-0.75296

>  <SCORE.INTRA>
-2.98221

>  <SCORE.INTRA.DIHEDRAL>
5.48483

>  <SCORE.INTRA.DIHEDRAL.0>
14.7815

>  <SCORE.INTRA.POLAR>
0

>  <SCORE.INTRA.POLAR.0>
0

>  <SCORE.INTRA.REPUL>
0

>  <SCORE.INTRA.REPUL.0>
0

>  <SCORE.INTRA.VDW>
-4.07918

>  <SCORE.INTRA.VDW.0>
-0.0652974

>  <SCORE.INTRA.norm>
-0.102835

>  <SCORE.RESTR>
0

>  <SCORE.RESTR.CAVITY>
0

>  <SCORE.RESTR.norm>
0

>  <SCORE.SYSTEM>
-56.1226

>  <SCORE.SYSTEM.CONST>
0

>  <SCORE.SYSTEM.DIHEDRAL>
1.49749

>  <SCORE.SYSTEM.POLAR>
-0.277853

>  <SCORE.SYSTEM.REPUL>
0.0107922

>  <SCORE.SYSTEM.VDW>
-55.9806

>  <SCORE.SYSTEM.norm>
-1.93526

>  <SCORE.heavy>
29

>  <SCORE.norm>
-2.79106

$$$$
OHT.pdb
  rDOCK(R)          3D
libRbt.so/2013.1/901 2013/11/27
 30 32  0  0  0  0  0  0  0  0999 V2000
   70.6673   34.9992   71.8087 C   0  0  0  0  0  0
   69.6624   35.7280   72.6580 C   0  0  0  0  0  0
   68.4968   34.8444   73.0515 C   0  0  0  0  0  0
   67.3431   34.9164   72.1037 C   0  0  0  0  0  0
   66.4407   36.0002   72.1496 C   0  0  0  0  0  0
   65.3932   36.0907   71.2325 C   0  0  0  0  0  0
   65.2113   35.1245   70.2626 C   0  0  0  0  0  0
   66.0802   34.0610   70.2043 C   0  0  0  0  0  0
   67.1361   33.9600   71.1171 C   0  0  0  0  0  0
   68.5107   34.0604   74.1694 C   0  0  0  0  0  0
   68.3369   32.5615   74.1470 C   0  0  0  0  0  0
   69.3384   31.6789   74.6591 C   0  0  0  0  0  0
   69.1743   30.2886   74.5782 C   0  0  0  0  0  0
   68.0087   29.7675   73.9854 C   0  0  0  0  0  0
   67.8814   28.4132   73.9003 O   0  0  0  0  0  0
   67.0106   30.6304   73.4784 C   0  0  0  0  0  0
   67.1929   32.0047   73.5672 C   0  0  0  0  0  0
   68.6820   34.6120   75.5169 C   0  0  0  0  0  0
   67.7228   35.4403   76.0945 C   0  0  0  0  0  0
   67.8535   35.9435   77.3582 C   0  0  0  0  0  0
   68.9756   35.6245   78.1059 C   0  0  0  0  0  0
   69.1669   36.0543   79.3878 O   0  0  0  0  0  0
   68.1546   35.8412   80.3670 C   0  0  0  0  0  0
   68.7530   36.2277   81.6925 C   0  0  0  0  0  0
   69.7762   35.3274   82.1488 N   0  0  0  0  0  0
   71.1132   35.8993   81.9831 C   0  0  0  0  0  0
   69.5766   35.0388   83.5736 C   0  0  0  0  0  0
   69.9660   34.7934   77.5542 C   0  0  0  0  0  0
   69.8109   34.3034   76.2878 C   0  0  0  0  0  0
   67.0680   28.0352   73.6293 H   0  0  0  0  0  0
  1  2  1  0  0  0
  2  3  1  0  0  0
  3  4  1  0  0  0
  3 10  1  0  0  0
  4  5  2  0  0  0
  4  9  1  0  0  0
  5  6  1  0  0  0
  6  7  2  0  0  0
  7  8  1  0  0  0
  8  9  2  0  0  0
 10 11  1  0  0  0
 10 18  1  0  0  0
 11 12  2  0  0  0
 11 17  1  0  0  0
 12 13  1  0  0  0
 13 14  2  0  0  0
 14 15  1  0  0  0
 14 16  1  0  0  0
 15 30  1  0  0  0
 16 17  2  0  0  0
 18 19  2  0  0  0
 18 29  1  0  0  0
 19 20  1  0  0  0
 20 21  2  0  0  0
 21 22  1  0  0  0
 21 28  1  0  0  0
 22 23  1  0  0  0
 23 24  1  0  0  0
 24 25  1  0  0  0
 25 26  1  0  0  0
 25 27  1  0  0  0
 28 29  2  0  0  0
M  END
>  <CHROM.0>
-13.10705278,-60.50243033,-169.76069078,164.20729240

>  <CHROM.1>
-91.97862949,-78.86877095,-121.33800544,120.78703640,66.09431785,170.94298543
52.33209282,171.39472520,-69.44117021,104.66611901,68.36673293,34.14434327
75.53768733,2.57330609,1.29242725,-2.78718277

>  <FORMUL>
      OHT    C26 H29 N1 O2

>  <HET>
 OHT  A 600      29

>  <HETNAM>
     OHT 4-HYDROXYTAMOXIFEN

>  <Name>
OHT.pdb

>  <RI>
0

>  <Rbt.Current_Directory>
/home/malgorzata/Desktop/rDOCK_IFD/test5

>  <Rbt.Executable>
rbdock ($Id: //depot/dev/client3/rdock/2013.1/src/exe/rbdock.cxx#4 $)

>  <Rbt.Library>
libRbt.so (2013.1, Build901 2013/11/27)

>  <Rbt.Parameter_File>
/home/malgorzata/Desktop/rDock_2013.1_src/data/scripts/soft_docking.prm

>  <Rbt.Receptor>
cavity.prm

>  <SCORE>
-78.4365

>  <SCORE.INTER>
-12.3178

>  <SCORE.INTER.CONST>
1

>  <SCORE.INTER.POLAR>
-0.185712

>  <SCORE.INTER.REPUL>
0.447691

>  <SCORE.INTER.ROT>
9

>  <SCORE.INTER.VDW>
-28.3249

>  <SCORE.INTER.norm>
-0.424752

>  <SCORE.INTRA>
-4.24391

>  <SCORE.INTRA.DIHEDRAL>
-1.18395

>  <SCORE.INTRA.DIHEDRAL.0>
14.7815

>  <SCORE.INTRA.POLAR>
0

>  <SCORE.INTRA.POLAR.0>
0

>  <SCORE.INTRA.REPUL>
0

>  <SCORE.INTRA.REPUL.0>
0

>  <SCORE.INTRA.VDW>
-4.00711

>  <SCORE.INTRA.VDW.0>
-0.0652974

>  <SCORE.INTRA.norm>
-0.146342

>  <SCORE.RESTR>
0.24254

>  <SCORE.RESTR.CAVITY>
0.24254

>  <SCORE.RESTR.norm>
0.00836346

>  <SCORE.SYSTEM>
-62.1173

>  <SCORE.SYSTEM.CONST>
0

>  <SCORE.SYSTEM.DIHEDRAL>
1.30871

>  <SCORE.SYSTEM.POLAR>
-0.193677

>  <SCORE.SYSTEM.REPUL>
0.127262

>  <SCORE.SYSTEM.VDW>
-62.7494

>  <SCORE.SYSTEM.norm>
-2.14198

>  <SCORE.heavy>
29

>  <SCORE.norm>
-2.70471

$$$$
OHT.pdb
  rDOCK(R)          3D
libRbt.so/2013.1/901 2013/11/27
 30 32  0  0  0  0  0  0  0  0999 V2000
   66.2767   34.6367   80.5805 C   0  0  0  0  0  0
   67.0537   35.7381   81.2480 C   0  0  0  0  0  0
   67.9836   36.4474   80.2857 C   0  0  0  0  0  0
   67.5113   37.8091   79.8891 C   0  0  0  0  0  0
   66.1770   38.2042   80.1225 C   0  0  0  0  0  0
   65.7510   39.4922   79.7966 C   0  0  0  0  0  0
   66.6195   40.4084   79.2366 C   0  0  0  0  0  0
   67.9226   40.0399   79.0011 C   0  0  0  0  0  0
   68.3626   38.7517   79.3255 C   0  0  0  0  0  0
   69.1417   35.8852   79.8302 C   0  0  0  0  0  0
   70.4012   35.7711   80.6537 C   0  0  0  0  0  0
   70.3611   35.5354   82.0634 C   0  0  0  0  0  0
   71.5451   35.4861   82.8132 C   0  0  0  0  0  0
   72.7793   35.6713   82.1620 C   0  0  0  0  0  0
   73.9146   35.6390   82.9154 O   0  0  0  0  0  0
   72.8312   35.9020   80.7684 C   0  0  0  0  0  0
   71.6468   35.9485   80.0439 C   0  0  0  0  0  0
   69.2761   35.3469   78.4732 C   0  0  0  0  0  0
   68.3056   35.5699   77.4994 C   0  0  0  0  0  0
   68.4254   35.0973   76.2229 C   0  0  0  0  0  0
   69.5501   34.3696   75.8685 C   0  0  0  0  0  0
   69.7656   33.8932   74.6071 O   0  0  0  0  0  0
   68.6702   33.7366   73.7102 C   0  0  0  0  0  0
   69.0130   32.5772   72.8142 C   0  0  0  0  0  0
   68.6839   31.2959   73.3761 N   0  0  0  0  0  0
   69.0941   31.1986   74.7777 C   0  0  0  0  0  0
   67.2328   31.0887   73.3098 C   0  0  0  0  0  0
   70.5489   34.1224   76.8262 C   0  0  0  0  0  0
   70.4046   34.6064   78.0962 C   0  0  0  0  0  0
   73.8818   35.8718   83.8224 H   0  0  0  0  0  0
  1  2  1  0  0  0
  2  3  1  0  0  0
  3  4  1  0  0  0
  3 10  1  0  0  0
  4  5  2  0  0  0
  4  9  1  0  0  0
  5  6  1  0  0  0
  6  7  2  0  0  0
  7  8  1  0  0  0
  8  9  2  0  0  0
 10 11  1  0  0  0
 10 18  1  0  0  0
 11 12  2  0  0  0
 11 17  1  0  0  0
 12 13  1  0  0  0
 13 14  2  0  0  0
 14 15  1  0  0  0
 14 16  1  0  0  0
 15 30  1  0  0  0
 16 17  2  0  0  0
 18 19  2  0  0  0
 18 29  1  0  0  0
 19 20  1  0  0  0
 20 21  2  0  0  0
 21 22  1  0  0  0
 21 28  1  0  0  0
 22 23  1  0  0  0
 23 24  1  0  0  0
 24 25  1  0  0  0
 25 26  1  0  0  0
 25 27  1  0  0  0
 28 29  2  0  0  0
M  END
>  <CHROM.0>
36.69482384,-60.19148879,97.80477017,-19.08095538

>  <CHROM.1>
106.04516192,-15.53338624,-75.90310584,34.99151668,10.58434548,-26.82262709
-20.69598459,-149.08848226,84.35070464,-44.81322908,69.15701573,35.43989908
78.43154935,1.43426932,-0.58091651,0.92225995

>  <FORMUL>
      OHT    C26 H29 N1 O2

>  <HET>
 OHT  A 600      29

>  <HETNAM>
     OHT 4-HYDROXYTAMOXIFEN

>  <Name>
OHT.pdb

>  <RI>
0

>  <Rbt.Current_Directory>
/home/malgorzata/Desktop/rDOCK_IFD/test5

>  <Rbt.Executable>
rbdock ($Id: //depot/dev/client3/rdock/2013.1/src/exe/rbdock.cxx#4 $)

>  <Rbt.Library>
libRbt.so (2013.1, Build901 2013/11/27)

>  <Rbt.Parameter_File>
/home/malgorzata/Desktop/rDock_2013.1_src/data/scripts/soft_docking.prm

>  <Rbt.Receptor>
cavity.prm

>  <SCORE>
-68.4614

>  <SCORE.INTER>
-15.6335

>  <SCORE.INTER.CONST>
1

>  <SCORE.INTER.POLAR>
-0.158664

>  <SCORE.INTER.REPUL>
0

>  <SCORE.INTER.ROT>
9

>  <SCORE.INTER.VDW>
-29.494

>  <SCORE.INTER.norm>
-0.539085

>  <SCORE.INTRA>
8.58412

>  <SCORE.INTRA.DIHEDRAL>
-0.767062

>  <SCORE.INTRA.DIHEDRAL.0>
14.7815

>  <SCORE.INTRA.POLAR>
0

>  <SCORE.INTRA.POLAR.0>
0

>  <SCORE.INTRA.REPUL>
0

>  <SCORE.INTRA.REPUL.0>
0

>  <SCORE.INTRA.VDW>
8.73753

>  <SCORE.INTRA.VDW.0>
-0.0652974

>  <SCORE.INTRA.norm>
0.296004

>  <SCORE.RESTR>
0.408098

>  <SCORE.RESTR.CAVITY>
0.408098

>  <SCORE.RESTR.norm>
0.0140723

>  <SCORE.SYSTEM>
-61.8202

>  <SCORE.SYSTEM.CONST>
0

>  <SCORE.SYSTEM.DIHEDRAL>
1.43565

>  <SCORE.SYSTEM.POLAR>
-0.216677

>  <SCORE.SYSTEM.REPUL>
0.116685

>  <SCORE.SYSTEM.VDW>
-62.3847

>  <SCORE.SYSTEM.norm>
-2.13173

>  <SCORE.heavy>
29

>  <SCORE.norm>
-2.36074

$$$$
OHT.pdb
  rDOCK(R)          3D
libRbt.so/2013.1/901 2013/11/27
 30 32  0  0  0  0  0  0  0  0999 V2000
   70.9283   31.6727   74.3054 C   0  0  0  0  0  0
   69.6693   32.3449   74.7800 C   0  0  0  0  0  0
   69.1968   33.4182   73.8215 C   0  0  0  0  0  0
   68.6378   32.8781   72.5446 C   0  0  0  0  0  0
   67.4783   33.4419   71.9713 C   0  0  0  0  0  0
   66.9864   32.9686   70.7545 C   0  0  0  0  0  0
   67.6169   31.9386   70.0844 C   0  0  0  0  0  0
   68.7469   31.3768   70.6293 C   0  0  0  0  0  0
   69.2514   31.8441   71.8481 C   0  0  0  0  0  0
   69.2792   34.7507   74.1083 C   0  0  0  0  0  0
   69.3778   35.8316   73.0597 C   0  0  0  0  0  0
   70.5995   36.1006   72.3674 C   0  0  0  0  0  0
   70.6771   37.1455   71.4354 C   0  0  0  0  0  0
   69.5355   37.9306   71.1864 C   0  0  0  0  0  0
   69.6414   38.9528   70.2912 O   0  0  0  0  0  0
   68.3216   37.6718   71.8627 C   0  0  0  0  0  0
   68.2660   36.6329   72.7831 C   0  0  0  0  0  0
   69.2963   35.2616   75.4823 C   0  0  0  0  0  0
   70.4892   35.4573   76.1742 C   0  0  0  0  0  0
   70.5261   35.9558   77.4459 C   0  0  0  0  0  0
   69.3407   36.2860   78.0830 C   0  0  0  0  0  0
   69.2905   36.8231   79.3374 O   0  0  0  0  0  0
   68.7456   36.0653   80.4133 C   0  0  0  0  0  0
   68.2424   37.0589   81.4251 C   0  0  0  0  0  0
   68.9402   38.3152   81.3974 N   0  0  0  0  0  0
   68.0442   39.4244   81.0672 C   0  0  0  0  0  0
   69.5275   38.5798   82.7158 C   0  0  0  0  0  0
   68.1173   36.0991   77.4164 C   0  0  0  0  0  0
   68.1082   35.5987   76.1446 C   0  0  0  0  0  0
   70.2121   39.6744   70.4693 H   0  0  0  0  0  0
  1  2  1  0  0  0
  2  3  1  0  0  0
  3  4  1  0  0  0
  3 10  1  0  0  0
  4  5  2  0  0  0
  4  9  1  0  0  0
  5  6  1  0  0  0
  6  7  2  0  0  0
  7  8  1  0  0  0
  8  9  2  0  0  0
 10 11  1  0  0  0
 10 18  1  0  0  0
 11 12  2  0  0  0
 11 17  1  0  0  0
 12 13  1  0  0  0
 13 14  2  0  0  0
 14 15  1  0  0  0
 14 16  1  0  0  0
 15 30  1  0  0  0
 16 17  2  0  0  0
 18 19  2  0  0  0
 18 29  1  0  0  0
 19 20  1  0  0  0
 20 21  2  0  0  0
 21 22  1  0  0  0
 21 28  1  0  0  0
 22 23  1  0  0  0
 23 24  1  0  0  0
 24 25  1  0  0  0
 25 26  1  0  0  0
 25 27  1  0  0  0
 28 29  2  0  0  0
M  END
>  <CHROM.0>
-76.87938739,-60.40042149,-172.15361094,155.98048939

>  <CHROM.1>
71.45210182,138.71100959,153.59925179,-76.89509988,90.88630895,-64.07982215
-112.25409219,-154.16240762,-27.36626614,118.42047995,69.07668892,35.51052318
75.10933082,1.70609975,-1.52082832,-1.80965885

>  <FORMUL>
      OHT    C26 H29 N1 O2

>  <HET>
 OHT  A 600      29

>  <HETNAM>
     OHT 4-HYDROXYTAMOXIFEN

>  <Name>
OHT.pdb

>  <RI>
0

>  <Rbt.Current_Directory>
/home/malgorzata/Desktop/rDOCK_IFD/test5

>  <Rbt.Executable>
rbdock ($Id: //depot/dev/client3/rdock/2013.1/src/exe/rbdock.cxx#4 $)

>  <Rbt.Library>
libRbt.so (2013.1, Build901 2013/11/27)

>  <Rbt.Parameter_File>
/home/malgorzata/Desktop/rDock_2013.1_src/data/scripts/soft_docking.prm

>  <Rbt.Receptor>
cavity.prm

>  <SCORE>
-80.3129

>  <SCORE.INTER>
-18.3133

>  <SCORE.INTER.CONST>
1

>  <SCORE.INTER.POLAR>
-1.37048

>  <SCORE.INTER.REPUL>
0.760071

>  <SCORE.INTER.ROT>
9

>  <SCORE.INTER.VDW>
-31.854

>  <SCORE.INTER.norm>
-0.631493

>  <SCORE.INTRA>
-0.421338

>  <SCORE.INTRA.DIHEDRAL>
10.1285

>  <SCORE.INTRA.DIHEDRAL.0>
14.7815

>  <SCORE.INTRA.POLAR>
0

>  <SCORE.INTRA.POLAR.0>
0

>  <SCORE.INTRA.REPUL>
0

>  <SCORE.INTRA.REPUL.0>
0

>  <SCORE.INTRA.VDW>
-2.44704

>  <SCORE.INTRA.VDW.0>
-0.0652974

>  <SCORE.INTRA.norm>
-0.0145289

>  <SCORE.RESTR>
0.0993304

>  <SCORE.RESTR.CAVITY>
0.0993304

>  <SCORE.RESTR.norm>
0.00342519

>  <SCORE.SYSTEM>
-61.6776

>  <SCORE.SYSTEM.CONST>
0

>  <SCORE.SYSTEM.DIHEDRAL>
1.71514

>  <SCORE.SYSTEM.POLAR>
-0.201023

>  <SCORE.SYSTEM.REPUL>
0.123883

>  <SCORE.SYSTEM.VDW>
-62.4711

>  <SCORE.SYSTEM.norm>
-2.12681

>  <SCORE.heavy>
29

>  <SCORE.norm>
-2.76941

$$$$
OHT.pdb
  rDOCK(R)          3D
libRbt.so/2013.1/901 2013/11/27
 30 32  0  0  0  0  0  0  0  0999 V2000
   70.4490   35.4456   70.4561 C   0  0  0  0  0  0
   70.2714   34.0803   71.0616 C   0  0  0  0  0  0
   68.8341   33.8114   71.4566 C   0  0  0  0  0  0
   67.8347   34.5296   70.6082 C   0  0  0  0  0  0
   67.1847   33.8673   69.5452 C   0  0  0  0  0  0
   66.2165   34.5247   68.7857 C   0  0  0  0  0  0
   65.8731   35.8357   69.0513 C   0  0  0  0  0  0
   66.4973   36.4967   70.0824 C   0  0  0  0  0  0
   67.4686   35.8476   70.8528 C   0  0  0  0  0  0
   68.4961   32.9884   72.4924 C   0  0  0  0  0  0
   67.5552   31.8158   72.3616 C   0  0  0  0  0  0
   66.7410   31.6287   71.2013 C   0  0  0  0  0  0
   65.8369   30.5592   71.1279 C   0  0  0  0  0  0
   65.7382   29.6671   72.2124 C   0  0  0  0  0  0
   64.8381   28.6474   72.1258 O   0  0  0  0  0  0
   66.5403   29.8405   73.3633 C   0  0  0  0  0  0
   67.4287   30.9071   73.4166 C   0  0  0  0  0  0
   69.0105   33.1802   73.8518 C   0  0  0  0  0  0
   69.9794   32.3380   74.3919 C   0  0  0  0  0  0
   70.4885   32.5161   75.6474 C   0  0  0  0  0  0
   70.0356   33.5712   76.4230 C   0  0  0  0  0  0
   70.5172   33.8420   77.6717 O   0  0  0  0  0  0
   70.1014   35.0218   78.3530 C   0  0  0  0  0  0
   68.9468   34.6240   79.2322 C   0  0  0  0  0  0
   68.5277   35.6580   80.1383 N   0  0  0  0  0  0
   67.5944   36.5889   79.5022 C   0  0  0  0  0  0
   67.8542   35.0548   81.2940 C   0  0  0  0  0  0
   69.0559   34.4400   75.9117 C   0  0  0  0  0  0
   68.5631   34.2396   74.6528 C   0  0  0  0  0  0
   65.0233   27.8233   72.5313 H   0  0  0  0  0  0
  1  2  1  0  0  0
  2  3  1  0  0  0
  3  4  1  0  0  0
  3 10  1  0  0  0
  4  5  2  0  0  0
  4  9  1  0  0  0
  5  6  1  0  0  0
  6  7  2  0  0  0
  7  8  1  0  0  0
  8  9  2  0  0  0
 10 11  1  0  0  0
 10 18  1  0  0  0
 11 12  2  0  0  0
 11 17  1  0  0  0
 12 13  1  0  0  0
 13 14  2  0  0  0
 14 15  1  0  0  0
 14 16  1  0  0  0
 15 30  1  0  0  0
 16 17  2  0  0  0
 18 19  2  0  0  0
 18 29  1  0  0  0
 19 20  1  0  0  0
 20 21  2  0  0  0
 21 22  1  0  0  0
 21 28  1  0  0  0
 22 23  1  0  0  0
 23 24  1  0  0  0
 24 25  1  0  0  0
 25 26  1  0  0  0
 25 27  1  0  0  0
 28 29  2  0  0  0
M  END
>  <CHROM.0>
154.21103987,-59.86944684,115.52879878,53.91630701

>  <CHROM.1>
29.59087167,98.71307090,-125.53088393,-12.43128762,-106.54062782,147.09492667
173.60233992,94.79548074,171.48419820,84.51529854,68.09467597,33.51323569
73.81063878,-2.21150477,1.16621109,1.95846962

>  <FORMUL>
      OHT    C26 H29 N1 O2

>  <HET>
 OHT  A 600      29

>  <HETNAM>
     OHT 4-HYDROXYTAMOXIFEN

>  <Name>
OHT.pdb

>  <RI>
0

>  <Rbt.Current_Directory>
/home/malgorzata/Desktop/rDOCK_IFD/test5

>  <Rbt.Executable>
rbdock ($Id: //depot/dev/client3/rdock/2013.1/src/exe/rbdock.cxx#4 $)

>  <Rbt.Library>
libRbt.so (2013.1, Build901 2013/11/27)

>  <Rbt.Parameter_File>
/home/malgorzata/Desktop/rDock_2013.1_src/data/scripts/soft_docking.prm

>  <Rbt.Receptor>
cavity.prm

>  <SCORE>
-76.4499

>  <SCORE.INTER>
-19.4562

>  <SCORE.INTER.CONST>
1

>  <SCORE.INTER.POLAR>
0

>  <SCORE.INTER.REPUL>
0.145691

>  <SCORE.INTER.ROT>
9

>  <SCORE.INTER.VDW>
-34.5846

>  <SCORE.INTER.norm>
-0.670902

>  <SCORE.INTRA>
3.70677

>  <SCORE.INTRA.DIHEDRAL>
0.111167

>  <SCORE.INTRA.DIHEDRAL.0>
14.7815

>  <SCORE.INTRA.POLAR>
0

>  <SCORE.INTRA.POLAR.0>
0

>  <SCORE.INTRA.REPUL>
0

>  <SCORE.INTRA.REPUL.0>
0

>  <SCORE.INTRA.VDW>
3.68453

>  <SCORE.INTRA.VDW.0>
-0.0652974

>  <SCORE.INTRA.norm>
0.12782

>  <SCORE.RESTR>
0

>  <SCORE.RESTR.CAVITY>
0

>  <SCORE.RESTR.norm>
0

>  <SCORE.SYSTEM>
-60.7005

>  <SCORE.SYSTEM.CONST>
0

>  <SCORE.SYSTEM.DIHEDRAL>
4.05064

>  <SCORE.SYSTEM.POLAR>
-0.240558

>  <SCORE.SYSTEM.REPUL>
0.10492

>  <SCORE.SYSTEM.VDW>
-62.4325

>  <SCORE.SYSTEM.norm>
-2.09312

>  <SCORE.heavy>
29

>  <SCORE.norm>
-2.6362

$$$$
OHT.pdb
  rDOCK(R)          3D
libRbt.so/2013.1/901 2013/11/27
 30 32  0  0  0  0  0  0  0  0999 V2000
   71.9354   35.5544   80.2461 C   0  0  0  0  0  0
   71.2964   34.2958   80.7656 C   0  0  0  0  0  0
   70.1891   33.7994   79.8592 C   0  0  0  0  0  0
   69.9329   32.3312   79.9742 C   0  0  0  0  0  0
   70.6611   31.4102   79.1915 C   0  0  0  0  0  0
   70.4552   30.0378   79.3356 C   0  0  0  0  0  0
   69.5353   29.5477   80.2416 C   0  0  0  0  0  0
   68.8161   30.4307   81.0113 C   0  0  0  0  0  0
   69.0150   31.8095   80.8776 C   0  0  0  0  0  0
   69.4974   34.6254   79.0202 C   0  0  0  0  0  0
   68.7854   35.8770   79.4716 C   0  0  0  0  0  0
   69.3636   37.1742   79.3061 C   0  0  0  0  0  0
   68.7037   38.3164   79.7820 C   0  0  0  0  0  0
   67.4607   38.1733   80.4270 C   0  0  0  0  0  0
   66.8484   39.2959   80.8986 O   0  0  0  0  0  0
   66.8781   36.8962   80.5936 C   0  0  0  0  0  0
   67.5487   35.7772   80.1161 C   0  0  0  0  0  0
   69.3664   34.3602   77.5843 C   0  0  0  0  0  0
   69.9745   35.1751   76.6325 C   0  0  0  0  0  0
   69.8840   34.9294   75.2913 C   0  0  0  0  0  0
   69.1662   33.8307   74.8467 C   0  0  0  0  0  0
   69.0566   33.4928   73.5283 O   0  0  0  0  0  0
   69.6065   34.3453   72.5284 C   0  0  0  0  0  0
   68.5470   35.3633   72.2038 C   0  0  0  0  0  0
   68.0975   35.3142   70.8396 N   0  0  0  0  0  0
   66.6843   34.9445   70.7487 C   0  0  0  0  0  0
   68.2648   36.6337   70.2197 C   0  0  0  0  0  0
   68.5365   32.9877   75.7788 C   0  0  0  0  0  0
   68.6424   33.2559   77.1148 C   0  0  0  0  0  0
   67.2133   40.1398   80.7176 H   0  0  0  0  0  0
  1  2  1  0  0  0
  2  3  1  0  0  0
  3  4  1  0  0  0
  3 10  1  0  0  0
  4  5  2  0  0  0
  4  9  1  0  0  0
  5  6  1  0  0  0
  6  7  2  0  0  0
  7  8  1  0  0  0
  8  9  2  0  0  0
 10 11  1  0  0  0
 10 18  1  0  0  0
 11 12  2  0  0  0
 11 17  1  0  0  0
 12 13  1  0  0  0
 13 14  2  0  0  0
 14 15  1  0  0  0
 14 16  1  0  0  0
 15 30  1  0  0  0
 16 17  2  0  0  0
 18 19  2  0  0  0
 18 29  1  0  0  0
 19 20  1  0  0  0
 20 21  2  0  0  0
 21 22  1  0  0  0
 21 28  1  0  0  0
 22 23  1  0  0  0
 23 24  1  0  0  0
 24 25  1  0  0  0
 25 26  1  0  0  0
 25 27  1  0  0  0
 28 29  2  0  0  0
M  END
>  <CHROM.0>
-30.91953824,-61.54751382,-81.42199686,14.73971739

>  <CHROM.1>
155.16282163,-87.38346283,-54.44905973,99.91498049,-112.14915400,5.88859704
-5.09765172,-86.92683597,-117.90262817,116.06339782,69.04200453,34.54317168
77.42933265,1.17764315,-1.27669162,1.30582474

>  <FORMUL>
      OHT    C26 H29 N1 O2

>  <HET>
 OHT  A 600      29

>  <HETNAM>
     OHT 4-HYDROXYTAMOXIFEN

>  <Name>
OHT.pdb

>  <RI>
0

>  <Rbt.Current_Directory>
/home/malgorzata/Desktop/rDOCK_IFD/test5

>  <Rbt.Executable>
rbdock ($Id: //depot/dev/client3/rdock/2013.1/src/exe/rbdock.cxx#4 $)

>  <Rbt.Library>
libRbt.so (2013.1, Build901 2013/11/27)

>  <Rbt.Parameter_File>
/home/malgorzata/Desktop/rDock_2013.1_src/data/scripts/soft_docking.prm

>  <Rbt.Receptor>
cavity.prm

>  <SCORE>
-74.9847

>  <SCORE.INTER>
-13.2534

>  <SCORE.INTER.CONST>
1

>  <SCORE.INTER.POLAR>
0

>  <SCORE.INTER.REPUL>
0

>  <SCORE.INTER.ROT>
9

>  <SCORE.INTER.VDW>
-27.6534

>  <SCORE.INTER.norm>
-0.457015

>  <SCORE.INTRA>
-0.534859

>  <SCORE.INTRA.DIHEDRAL>
3.69

>  <SCORE.INTRA.DIHEDRAL.0>
14.7815

>  <SCORE.INTRA.POLAR>
0

>  <SCORE.INTRA.POLAR.0>
0

>  <SCORE.INTRA.REPUL>
0

>  <SCORE.INTRA.REPUL.0>
0

>  <SCORE.INTRA.VDW>
-1.27286

>  <SCORE.INTRA.VDW.0>
-0.0652974

>  <SCORE.INTRA.norm>
-0.0184434

>  <SCORE.RESTR>
0.31209

>  <SCORE.RESTR.CAVITY>
0.31209

>  <SCORE.RESTR.norm>
0.0107617

>  <SCORE.SYSTEM>
-61.5085

>  <SCORE.SYSTEM.CONST>
0

>  <SCORE.SYSTEM.DIHEDRAL>
1.2655

>  <SCORE.SYSTEM.POLAR>
-0.123968

>  <SCORE.SYSTEM.REPUL>
0.179829

>  <SCORE.SYSTEM.VDW>
-62.6189

>  <SCORE.SYSTEM.norm>
-2.12098

>  <SCORE.heavy>
29

>  <SCORE.norm>
-2.58568

$$$$
