OHT.pdb
  rDOCK(R)          3D
libRbt.so/2013.1/901 2013/11/27
 30 32  0  0  0  0  0  0  0  0999 V2000
   70.4216   31.2546   77.7025 C   0  0  0  0  0  0
   70.4334   32.7586   77.6983 C   0  0  0  0  0  0
   69.4040   33.3421   78.6438 C   0  0  0  0  0  0
   69.2326   32.5555   79.9033 C   0  0  0  0  0  0
   68.0158   31.8970   80.1804 C   0  0  0  0  0  0
   67.8742   31.1231   81.3326 C   0  0  0  0  0  0
   68.9155   30.9847   82.2291 C   0  0  0  0  0  0
   70.1076   31.6204   81.9756 C   0  0  0  0  0  0
   70.2628   32.3978   80.8224 C   0  0  0  0  0  0
   68.7048   34.4803   78.3607 C   0  0  0  0  0  0
   68.6112   35.6631   79.2934 C   0  0  0  0  0  0
   67.3529   36.2280   79.6701 C   0  0  0  0  0  0
   67.2967   37.3595   80.4965 C   0  0  0  0  0  0
   68.4964   37.9367   80.9540 C   0  0  0  0  0  0
   68.4164   39.0477   81.7395 O   0  0  0  0  0  0
   69.7459   37.3850   80.5905 C   0  0  0  0  0  0
   69.7799   36.2645   79.7700 C   0  0  0  0  0  0
   67.9552   34.6551   77.1130 C   0  0  0  0  0  0
   66.7678   33.9684   76.8717 C   0  0  0  0  0  0
   66.0429   34.1371   75.7257 C   0  0  0  0  0  0
   66.4920   35.0230   74.7596 C   0  0  0  0  0  0
   65.8105   35.2779   73.6041 O   0  0  0  0  0  0
   65.9041   34.3712   72.5095 C   0  0  0  0  0  0
   65.9265   35.2094   71.2600 C   0  0  0  0  0  0
   66.8128   36.3381   71.3375 N   0  0  0  0  0  0
   68.1718   35.9884   70.9213 C   0  0  0  0  0  0
   66.3263   37.4059   70.4564 C   0  0  0  0  0  0
   67.6881   35.7315   74.9677 C   0  0  0  0  0  0
   68.3944   35.5443   76.1227 C   0  0  0  0  0  0
   69.0851   39.7024   81.6944 H   0  0  0  0  0  0
  1  2  1  0  0  0
  2  3  1  0  0  0
  3  4  1  0  0  0
  3 10  1  0  0  0
  4  5  2  0  0  0
  4  9  1  0  0  0
  5  6  1  0  0  0
  6  7  2  0  0  0
  7  8  1  0  0  0
  8  9  2  0  0  0
 10 11  1  0  0  0
 10 18  1  0  0  0
 11 12  2  0  0  0
 11 17  1  0  0  0
 12 13  1  0  0  0
 13 14  2  0  0  0
 14 15  1  0  0  0
 14 16  1  0  0  0
 15 30  1  0  0  0
 16 17  2  0  0  0
 18 19  2  0  0  0
 18 29  1  0  0  0
 19 20  1  0  0  0
 20 21  2  0  0  0
 21 22  1  0  0  0
 21 28  1  0  0  0
 22 23  1  0  0  0
 23 24  1  0  0  0
 24 25  1  0  0  0
 25 26  1  0  0  0
 25 27  1  0  0  0
 28 29  2  0  0  0
M  END
>  <CHROM.0>
-4.32824450,-60.22000377,-50.09130841,-156.62240760

>  <CHROM.1>
36.55366537,-114.30630836,-127.87422098,-127.72150365,72.11162503,-147.39550493
-80.23355939,-142.28670132,45.51499130,87.86262178,68.09688484,34.73530968
77.37184055,-0.31507832,1.28328365,-2.59172343

>  <FORMUL>
      OHT    C26 H29 N1 O2

>  <HET>
 OHT  A 600      29

>  <HETNAM>
     OHT 4-HYDROXYTAMOXIFEN

>  <Name>
OHT.pdb

>  <RI>
0

>  <Rbt.Current_Directory>
/home/malgorzata/Desktop/rDOCK_IFD/Wyniki/5a_estrogen_receptor

>  <Rbt.Executable>
rbdock ($Id: //depot/dev/client3/rdock/2013.1/src/exe/rbdock.cxx#4 $)

>  <Rbt.Library>
libRbt.so (2013.1, Build901 2013/11/27)

>  <Rbt.Parameter_File>
/home/malgorzata/Desktop/rDock_2013.1_src/data/scripts/soft_docking.prm

>  <Rbt.Receptor>
cavity.prm

>  <SCORE>
-73.9097

>  <SCORE.INTER>
-11.0933

>  <SCORE.INTER.CONST>
1

>  <SCORE.INTER.POLAR>
0

>  <SCORE.INTER.REPUL>
0

>  <SCORE.INTER.ROT>
9

>  <SCORE.INTER.VDW>
-25.4933

>  <SCORE.INTER.norm>
-0.382526

>  <SCORE.INTRA>
-1.45179

>  <SCORE.INTRA.DIHEDRAL>
6.26136

>  <SCORE.INTRA.DIHEDRAL.0>
14.7815

>  <SCORE.INTRA.POLAR>
0

>  <SCORE.INTRA.POLAR.0>
0

>  <SCORE.INTRA.REPUL>
0

>  <SCORE.INTRA.REPUL.0>
0

>  <SCORE.INTRA.VDW>
-2.70406

>  <SCORE.INTRA.VDW.0>
-0.0652974

>  <SCORE.INTRA.norm>
-0.0500618

>  <SCORE.RESTR>
0.510699

>  <SCORE.RESTR.CAVITY>
0.510699

>  <SCORE.RESTR.norm>
0.0176103

>  <SCORE.SYSTEM>
-61.8753

>  <SCORE.SYSTEM.CONST>
0

>  <SCORE.SYSTEM.DIHEDRAL>
1.70053

>  <SCORE.SYSTEM.POLAR>
-0.214374

>  <SCORE.SYSTEM.REPUL>
0.117689

>  <SCORE.SYSTEM.VDW>
-62.5852

>  <SCORE.SYSTEM.norm>
-2.13363

>  <SCORE.heavy>
29

>  <SCORE.norm>
-2.54861

$$$$
OHT.pdb
  rDOCK(R)          3D
libRbt.so/2013.1/901 2013/11/27
 30 32  0  0  0  0  0  0  0  0999 V2000
   65.5336   34.9535   78.8325 C   0  0  0  0  0  0
   66.5402   34.7368   79.9289 C   0  0  0  0  0  0
   67.8171   35.5177   79.6966 C   0  0  0  0  0  0
   67.7306   36.9485   80.1206 C   0  0  0  0  0  0
   66.6995   37.3832   80.9801 C   0  0  0  0  0  0
   66.6487   38.7083   81.4139 C   0  0  0  0  0  0
   67.6003   39.6252   81.0125 C   0  0  0  0  0  0
   68.6111   39.2193   80.1741 C   0  0  0  0  0  0
   68.6741   37.8924   79.7337 C   0  0  0  0  0  0
   68.9355   34.9561   79.1502 C   0  0  0  0  0  0
   69.9996   34.2496   79.9540 C   0  0  0  0  0  0
   70.3366   34.6584   81.2820 C   0  0  0  0  0  0
   71.3657   34.0178   81.9870 C   0  0  0  0  0  0
   72.0670   32.9634   81.3722 C   0  0  0  0  0  0
   73.0762   32.3699   82.0700 O   0  0  0  0  0  0
   71.7405   32.5488   80.0610 C   0  0  0  0  0  0
   70.7186   33.1973   79.3791 C   0  0  0  0  0  0
   69.2187   35.0022   77.7125 C   0  0  0  0  0  0
   69.3397   33.8403   76.9541 C   0  0  0  0  0  0
   69.5787   33.8643   75.6089 C   0  0  0  0  0  0
   69.7053   35.0825   74.9609 C   0  0  0  0  0  0
   69.9078   35.1962   73.6153 O   0  0  0  0  0  0
   68.8001   35.4107   72.7459 C   0  0  0  0  0  0
   69.3672   35.5687   71.3610 C   0  0  0  0  0  0
   69.8003   36.9065   71.0635 N   0  0  0  0  0  0
   70.9880   36.9128   70.2082 C   0  0  0  0  0  0
   68.7296   37.6248   70.3629 C   0  0  0  0  0  0
   69.5919   36.2759   75.6949 C   0  0  0  0  0  0
   69.3527   36.2242   77.0396 C   0  0  0  0  0  0
   72.8913   31.6492   82.6397 H   0  0  0  0  0  0
  1  2  1  0  0  0
  2  3  1  0  0  0
  3  4  1  0  0  0
  3 10  1  0  0  0
  4  5  2  0  0  0
  4  9  1  0  0  0
  5  6  1  0  0  0
  6  7  2  0  0  0
  7  8  1  0  0  0
  8  9  2  0  0  0
 10 11  1  0  0  0
 10 18  1  0  0  0
 11 12  2  0  0  0
 11 17  1  0  0  0
 12 13  1  0  0  0
 13 14  2  0  0  0
 14 15  1  0  0  0
 14 16  1  0  0  0
 15 30  1  0  0  0
 16 17  2  0  0  0
 18 19  2  0  0  0
 18 29  1  0  0  0
 19 20  1  0  0  0
 20 21  2  0  0  0
 21 22  1  0  0  0
 21 28  1  0  0  0
 22 23  1  0  0  0
 23 24  1  0  0  0
 24 25  1  0  0  0
 25 26  1  0  0  0
 25 27  1  0  0  0
 28 29  2  0  0  0
M  END
>  <CHROM.0>
-11.30480519,-60.11141646,161.69775296,178.81786413

>  <CHROM.1>
81.75686394,16.56722837,-87.60804967,-33.33305688,-119.19192305,88.23710236
95.83776755,176.78444938,-84.63292469,144.83032452,69.27543907,35.56791078
77.62855970,1.57952295,-0.83678608,1.69557225

>  <FORMUL>
      OHT    C26 H29 N1 O2

>  <HET>
 OHT  A 600      29

>  <HETNAM>
     OHT 4-HYDROXYTAMOXIFEN

>  <Name>
OHT.pdb

>  <RI>
0

>  <Rbt.Current_Directory>
/home/malgorzata/Desktop/rDOCK_IFD/Wyniki/5a_estrogen_receptor

>  <Rbt.Executable>
rbdock ($Id: //depot/dev/client3/rdock/2013.1/src/exe/rbdock.cxx#4 $)

>  <Rbt.Library>
libRbt.so (2013.1, Build901 2013/11/27)

>  <Rbt.Parameter_File>
/home/malgorzata/Desktop/rDock_2013.1_src/data/scripts/soft_docking.prm

>  <Rbt.Receptor>
cavity.prm

>  <SCORE>
-74.4759

>  <SCORE.INTER>
-12.3088

>  <SCORE.INTER.CONST>
1

>  <SCORE.INTER.POLAR>
0

>  <SCORE.INTER.REPUL>
0

>  <SCORE.INTER.ROT>
9

>  <SCORE.INTER.VDW>
-26.7088

>  <SCORE.INTER.norm>
-0.424442

>  <SCORE.INTRA>
-0.160784

>  <SCORE.INTRA.DIHEDRAL>
6.28127

>  <SCORE.INTRA.DIHEDRAL.0>
14.7815

>  <SCORE.INTRA.POLAR>
0

>  <SCORE.INTRA.POLAR.0>
0

>  <SCORE.INTRA.REPUL>
0

>  <SCORE.INTRA.REPUL.0>
0

>  <SCORE.INTRA.VDW>
-1.41704

>  <SCORE.INTRA.VDW.0>
-0.0652974

>  <SCORE.INTRA.norm>
-0.00554427

>  <SCORE.RESTR>
0.288976

>  <SCORE.RESTR.CAVITY>
0.288976

>  <SCORE.RESTR.norm>
0.00996469

>  <SCORE.SYSTEM>
-62.2953

>  <SCORE.SYSTEM.CONST>
0

>  <SCORE.SYSTEM.DIHEDRAL>
0.937555

>  <SCORE.SYSTEM.POLAR>
-0.223205

>  <SCORE.SYSTEM.REPUL>
0.113833

>  <SCORE.SYSTEM.VDW>
-62.5743

>  <SCORE.SYSTEM.norm>
-2.14811

>  <SCORE.heavy>
29

>  <SCORE.norm>
-2.56813

$$$$
OHT.pdb
  rDOCK(R)          3D
libRbt.so/2013.1/901 2013/11/27
 30 32  0  0  0  0  0  0  0  0999 V2000
   69.1956   31.7503   70.3216 C   0  0  0  0  0  0
   67.7381   32.1204   70.2957 C   0  0  0  0  0  0
   67.2426   32.5911   71.6475 C   0  0  0  0  0  0
   66.6277   31.5062   72.4717 C   0  0  0  0  0  0
   65.7257   30.5873   71.8944 C   0  0  0  0  0  0
   65.1908   29.5460   72.6534 C   0  0  0  0  0  0
   65.5262   29.3902   73.9840 C   0  0  0  0  0  0
   66.4023   30.2772   74.5629 C   0  0  0  0  0  0
   66.9473   31.3246   73.8117 C   0  0  0  0  0  0
   67.3529   33.8873   72.0625 C   0  0  0  0  0  0
   67.5601   35.0542   71.1282 C   0  0  0  0  0  0
   68.5894   35.0515   70.1358 C   0  0  0  0  0  0
   68.7936   36.1703   69.3155 C   0  0  0  0  0  0
   67.9718   37.3015   69.4789 C   0  0  0  0  0  0
   68.2028   38.3839   68.6835 O   0  0  0  0  0  0
   66.9492   37.3143   70.4546 C   0  0  0  0  0  0
   66.7641   36.1962   71.2580 C   0  0  0  0  0  0
   67.2960   34.2697   73.4766 C   0  0  0  0  0  0
   66.1191   34.7301   74.0621 C   0  0  0  0  0  0
   66.0408   35.0675   75.3840 C   0  0  0  0  0  0
   67.1653   34.9499   76.1850 C   0  0  0  0  0  0
   67.1641   35.2303   77.5213 O   0  0  0  0  0  0
   67.8865   36.3558   78.0116 C   0  0  0  0  0  0
   67.5380   36.4860   79.4697 C   0  0  0  0  0  0
   67.6664   35.2584   80.2061 N   0  0  0  0  0  0
   68.1804   35.4891   81.5569 C   0  0  0  0  0  0
   66.3525   34.6153   80.3214 C   0  0  0  0  0  0
   68.3715   34.4913   75.6275 C   0  0  0  0  0  0
   68.4230   34.1605   74.3024 C   0  0  0  0  0  0
   68.3639   39.2226   69.0689 H   0  0  0  0  0  0
  1  2  1  0  0  0
  2  3  1  0  0  0
  3  4  1  0  0  0
  3 10  1  0  0  0
  4  5  2  0  0  0
  4  9  1  0  0  0
  5  6  1  0  0  0
  6  7  2  0  0  0
  7  8  1  0  0  0
  8  9  2  0  0  0
 10 11  1  0  0  0
 10 18  1  0  0  0
 11 12  2  0  0  0
 11 17  1  0  0  0
 12 13  1  0  0  0
 13 14  2  0  0  0
 14 15  1  0  0  0
 14 16  1  0  0  0
 15 30  1  0  0  0
 16 17  2  0  0  0
 18 19  2  0  0  0
 18 29  1  0  0  0
 19 20  1  0  0  0
 20 21  2  0  0  0
 21 22  1  0  0  0
 21 28  1  0  0  0
 22 23  1  0  0  0
 23 24  1  0  0  0
 24 25  1  0  0  0
 25 26  1  0  0  0
 25 27  1  0  0  0
 28 29  2  0  0  0
M  END
>  <CHROM.0>
-165.65548268,-58.75318346,58.81078812,167.18286413

>  <CHROM.1>
-93.98182299,-44.40110658,19.82089841,-50.58860761,-97.30677448,-124.34509082
-111.88851237,172.80444296,49.71792445,142.83935061,67.29803194,34.17746701
73.88474289,1.41904293,-1.33334910,-1.78942177

>  <FORMUL>
      OHT    C26 H29 N1 O2

>  <HET>
 OHT  A 600      29

>  <HETNAM>
     OHT 4-HYDROXYTAMOXIFEN

>  <Name>
OHT.pdb

>  <RI>
0

>  <Rbt.Current_Directory>
/home/malgorzata/Desktop/rDOCK_IFD/Wyniki/5a_estrogen_receptor

>  <Rbt.Executable>
rbdock ($Id: //depot/dev/client3/rdock/2013.1/src/exe/rbdock.cxx#4 $)

>  <Rbt.Library>
libRbt.so (2013.1, Build901 2013/11/27)

>  <Rbt.Parameter_File>
/home/malgorzata/Desktop/rDock_2013.1_src/data/scripts/soft_docking.prm

>  <Rbt.Receptor>
cavity.prm

>  <SCORE>
-80.3618

>  <SCORE.INTER>
-18.5758

>  <SCORE.INTER.CONST>
1

>  <SCORE.INTER.POLAR>
-0.457917

>  <SCORE.INTER.REPUL>
0.00698269

>  <SCORE.INTER.ROT>
9

>  <SCORE.INTER.VDW>
-31.4538

>  <SCORE.INTER.norm>
-0.640544

>  <SCORE.INTRA>
-1.93009

>  <SCORE.INTRA.DIHEDRAL>
2.31949

>  <SCORE.INTRA.DIHEDRAL.0>
14.7815

>  <SCORE.INTRA.POLAR>
0

>  <SCORE.INTRA.POLAR.0>
0

>  <SCORE.INTRA.REPUL>
0

>  <SCORE.INTRA.REPUL.0>
0

>  <SCORE.INTRA.VDW>
-2.39398

>  <SCORE.INTRA.VDW.0>
-0.0652974

>  <SCORE.INTRA.norm>
-0.0665547

>  <SCORE.RESTR>
0.219669

>  <SCORE.RESTR.CAVITY>
0.219669

>  <SCORE.RESTR.norm>
0.00757481

>  <SCORE.SYSTEM>
-60.0756

>  <SCORE.SYSTEM.CONST>
0

>  <SCORE.SYSTEM.DIHEDRAL>
1.18826

>  <SCORE.SYSTEM.POLAR>
-0.287161

>  <SCORE.SYSTEM.REPUL>
0.0592909

>  <SCORE.SYSTEM.VDW>
-59.9898

>  <SCORE.SYSTEM.norm>
-2.07157

>  <SCORE.heavy>
29

>  <SCORE.norm>
-2.7711

$$$$
OHT.pdb
  rDOCK(R)          3D
libRbt.so/2013.1/901 2013/11/27
 30 32  0  0  0  0  0  0  0  0999 V2000
   64.4672   35.0299   68.8609 C   0  0  0  0  0  0
   64.9328   35.0473   70.2910 C   0  0  0  0  0  0
   66.2189   34.2709   70.4841 C   0  0  0  0  0  0
   66.2253   32.9416   69.8004 C   0  0  0  0  0  0
   65.1256   32.0655   69.9200 C   0  0  0  0  0  0
   65.1125   30.8464   69.2416 C   0  0  0  0  0  0
   66.1720   30.4660   68.4416 C   0  0  0  0  0  0
   67.2522   31.3066   68.3148 C   0  0  0  0  0  0
   67.2764   32.5330   68.9886 C   0  0  0  0  0  0
   67.2667   34.7509   71.2164 C   0  0  0  0  0  0
   68.0200   36.0139   70.8778 C   0  0  0  0  0  0
   67.4448   37.3088   71.0698 C   0  0  0  0  0  0
   68.1467   38.4644   70.6977 C   0  0  0  0  0  0
   69.4290   38.3371   70.1310 C   0  0  0  0  0  0
   70.0829   39.4737   69.7591 O   0  0  0  0  0  0
   70.0087   37.0623   69.9393 C   0  0  0  0  0  0
   69.2964   35.9299   70.3134 C   0  0  0  0  0  0
   67.7754   34.0648   72.4079 C   0  0  0  0  0  0
   68.1065   32.7120   72.3866 C   0  0  0  0  0  0
   68.6052   32.0618   73.4800 C   0  0  0  0  0  0
   68.7966   32.7617   74.6605 C   0  0  0  0  0  0
   69.3237   32.1980   75.7869 O   0  0  0  0  0  0
   69.3927   32.9524   76.9932 C   0  0  0  0  0  0
   68.9231   32.0416   78.0951 C   0  0  0  0  0  0
   68.6446   32.7239   79.3291 N   0  0  0  0  0  0
   68.1311   31.8087   80.3493 C   0  0  0  0  0  0
   69.8768   33.3339   79.8419 C   0  0  0  0  0  0
   68.4707   34.1278   74.7198 C   0  0  0  0  0  0
   67.9734   34.7545   73.6117 C   0  0  0  0  0  0
   71.0126   39.5334   69.8591 H   0  0  0  0  0  0
  1  2  1  0  0  0
  2  3  1  0  0  0
  3  4  1  0  0  0
  3 10  1  0  0  0
  4  5  2  0  0  0
  4  9  1  0  0  0
  5  6  1  0  0  0
  6  7  2  0  0  0
  7  8  1  0  0  0
  8  9  2  0  0  0
 10 11  1  0  0  0
 10 18  1  0  0  0
 11 12  2  0  0  0
 11 17  1  0  0  0
 12 13  1  0  0  0
 13 14  2  0  0  0
 14 15  1  0  0  0
 14 16  1  0  0  0
 15 30  1  0  0  0
 16 17  2  0  0  0
 18 19  2  0  0  0
 18 29  1  0  0  0
 19 20  1  0  0  0
 20 21  2  0  0  0
 21 22  1  0  0  0
 21 28  1  0  0  0
 22 23  1  0  0  0
 23 24  1  0  0  0
 24 25  1  0  0  0
 25 26  1  0  0  0
 25 27  1  0  0  0
 28 29  2  0  0  0
M  END
>  <CHROM.0>
-162.48572590,-60.96665384,153.40903873,-52.22502084

>  <CHROM.1>
-45.39179208,-47.00817541,-61.42689507,72.53297714,51.26017000,144.18974824
-175.06457870,135.39815239,-166.82885133,177.27255170,67.84113166,34.06043662
72.52356410,1.99715657,-1.06117159,-0.93072511

>  <FORMUL>
      OHT    C26 H29 N1 O2

>  <HET>
 OHT  A 600      29

>  <HETNAM>
     OHT 4-HYDROXYTAMOXIFEN

>  <Name>
OHT.pdb

>  <RI>
0

>  <Rbt.Current_Directory>
/home/malgorzata/Desktop/rDOCK_IFD/Wyniki/5a_estrogen_receptor

>  <Rbt.Executable>
rbdock ($Id: //depot/dev/client3/rdock/2013.1/src/exe/rbdock.cxx#4 $)

>  <Rbt.Library>
libRbt.so (2013.1, Build901 2013/11/27)

>  <Rbt.Parameter_File>
/home/malgorzata/Desktop/rDock_2013.1_src/data/scripts/soft_docking.prm

>  <Rbt.Receptor>
cavity.prm

>  <SCORE>
-79.4072

>  <SCORE.INTER>
-21.8716

>  <SCORE.INTER.CONST>
1

>  <SCORE.INTER.POLAR>
-1.20607

>  <SCORE.INTER.REPUL>
0

>  <SCORE.INTER.ROT>
9

>  <SCORE.INTER.VDW>
-32.171

>  <SCORE.INTER.norm>
-0.754193

>  <SCORE.INTRA>
2.60512

>  <SCORE.INTRA.DIHEDRAL>
1.76479

>  <SCORE.INTRA.DIHEDRAL.0>
14.7815

>  <SCORE.INTRA.POLAR>
0

>  <SCORE.INTRA.POLAR.0>
0

>  <SCORE.INTRA.REPUL>
0

>  <SCORE.INTRA.REPUL.0>
0

>  <SCORE.INTRA.VDW>
2.25216

>  <SCORE.INTRA.VDW.0>
-0.0652974

>  <SCORE.INTRA.norm>
0.0898316

>  <SCORE.RESTR>
0.194637

>  <SCORE.RESTR.CAVITY>
0.194637

>  <SCORE.RESTR.norm>
0.00671161

>  <SCORE.SYSTEM>
-60.3353

>  <SCORE.SYSTEM.CONST>
0

>  <SCORE.SYSTEM.DIHEDRAL>
3.93945

>  <SCORE.SYSTEM.POLAR>
-0.161328

>  <SCORE.SYSTEM.REPUL>
0.141417

>  <SCORE.SYSTEM.VDW>
-62.4636

>  <SCORE.SYSTEM.norm>
-2.08053

>  <SCORE.heavy>
29

>  <SCORE.norm>
-2.73818

$$$$
OHT.pdb
  rDOCK(R)          3D
libRbt.so/2013.1/901 2013/11/27
 30 32  0  0  0  0  0  0  0  0999 V2000
   65.5145   31.9594   72.4967 C   0  0  0  0  0  0
   65.8015   33.3066   71.8928 C   0  0  0  0  0  0
   67.2561   33.7024   72.0405 C   0  0  0  0  0  0
   68.2137   32.6385   71.6097 C   0  0  0  0  0  0
   68.8756   32.7266   70.3666 C   0  0  0  0  0  0
   69.8058   31.7581   69.9879 C   0  0  0  0  0  0
   70.0990   30.6915   70.8147 C   0  0  0  0  0  0
   69.4625   30.5893   72.0287 C   0  0  0  0  0  0
   68.5291   31.5553   72.4209 C   0  0  0  0  0  0
   67.6433   34.9196   72.5232 C   0  0  0  0  0  0
   67.7478   36.1648   71.6771 C   0  0  0  0  0  0
   66.9510   36.3480   70.5042 C   0  0  0  0  0  0
   67.1056   37.4912   69.7069 C   0  0  0  0  0  0
   68.0571   38.4616   70.0741 C   0  0  0  0  0  0
   68.2030   39.5541   69.2724 O   0  0  0  0  0  0
   68.8483   38.2925   71.2331 C   0  0  0  0  0  0
   68.6805   37.1522   72.0087 C   0  0  0  0  0  0
   68.0150   35.1293   73.9258 C   0  0  0  0  0  0
   67.4878   36.1806   74.6720 C   0  0  0  0  0  0
   67.8033   36.3771   75.9869 C   0  0  0  0  0  0
   68.6769   35.5046   76.6158 C   0  0  0  0  0  0
   69.0161   35.6072   77.9344 O   0  0  0  0  0  0
   69.2144   36.8909   78.5191 C   0  0  0  0  0  0
   68.6880   36.8063   79.9262 C   0  0  0  0  0  0
   68.1653   38.0496   80.4231 N   0  0  0  0  0  0
   66.9666   37.8454   81.2376 C   0  0  0  0  0  0
   69.1767   38.7093   81.2568 C   0  0  0  0  0  0
   69.2308   34.4337   75.8930 C   0  0  0  0  0  0
   68.8989   34.2596   74.5788 C   0  0  0  0  0  0
   67.5090   39.8087   68.6966 H   0  0  0  0  0  0
  1  2  1  0  0  0
  2  3  1  0  0  0
  3  4  1  0  0  0
  3 10  1  0  0  0
  4  5  2  0  0  0
  4  9  1  0  0  0
  5  6  1  0  0  0
  6  7  2  0  0  0
  7  8  1  0  0  0
  8  9  2  0  0  0
 10 11  1  0  0  0
 10 18  1  0  0  0
 11 12  2  0  0  0
 11 17  1  0  0  0
 12 13  1  0  0  0
 13 14  2  0  0  0
 14 15  1  0  0  0
 14 16  1  0  0  0
 15 30  1  0  0  0
 16 17  2  0  0  0
 18 19  2  0  0  0
 18 29  1  0  0  0
 19 20  1  0  0  0
 20 21  2  0  0  0
 21 22  1  0  0  0
 21 28  1  0  0  0
 22 23  1  0  0  0
 23 24  1  0  0  0
 24 25  1  0  0  0
 25 26  1  0  0  0
 25 27  1  0  0  0
 28 29  2  0  0  0
M  END
>  <CHROM.0>
-57.96786282,-60.09481004,78.24729056,-43.51545767

>  <CHROM.1>
49.45439172,102.92488572,-83.99204938,27.25980390,-131.20169719,21.75780897
-38.63961776,143.74761782,-149.50930315,141.53764414,68.19876308,35.34643929
73.95496153,-1.83219836,-1.46724462,0.95190882

>  <FORMUL>
      OHT    C26 H29 N1 O2

>  <HET>
 OHT  A 600      29

>  <HETNAM>
     OHT 4-HYDROXYTAMOXIFEN

>  <Name>
OHT.pdb

>  <RI>
0

>  <Rbt.Current_Directory>
/home/malgorzata/Desktop/rDOCK_IFD/Wyniki/5a_estrogen_receptor

>  <Rbt.Executable>
rbdock ($Id: //depot/dev/client3/rdock/2013.1/src/exe/rbdock.cxx#4 $)

>  <Rbt.Library>
libRbt.so (2013.1, Build901 2013/11/27)

>  <Rbt.Parameter_File>
/home/malgorzata/Desktop/rDock_2013.1_src/data/scripts/soft_docking.prm

>  <Rbt.Receptor>
cavity.prm

>  <SCORE>
-80.8276

>  <SCORE.INTER>
-20.0443

>  <SCORE.INTER.CONST>
1

>  <SCORE.INTER.POLAR>
-1.45499

>  <SCORE.INTER.REPUL>
0.367507

>  <SCORE.INTER.ROT>
9

>  <SCORE.INTER.VDW>
-31.3349

>  <SCORE.INTER.norm>
-0.691182

>  <SCORE.INTRA>
-0.0201825

>  <SCORE.INTRA.DIHEDRAL>
5.47861

>  <SCORE.INTRA.DIHEDRAL.0>
14.7815

>  <SCORE.INTRA.POLAR>
0

>  <SCORE.INTRA.POLAR.0>
0

>  <SCORE.INTRA.REPUL>
0

>  <SCORE.INTRA.REPUL.0>
0

>  <SCORE.INTRA.VDW>
-1.1159

>  <SCORE.INTRA.VDW.0>
-0.0652974

>  <SCORE.INTRA.norm>
-0.000695947

>  <SCORE.RESTR>
0.271759

>  <SCORE.RESTR.CAVITY>
0.271759

>  <SCORE.RESTR.norm>
0.00937099

>  <SCORE.SYSTEM>
-61.0349

>  <SCORE.SYSTEM.CONST>
0

>  <SCORE.SYSTEM.DIHEDRAL>
3.21776

>  <SCORE.SYSTEM.POLAR>
-0.224569

>  <SCORE.SYSTEM.REPUL>
0.113235

>  <SCORE.SYSTEM.VDW>
-62.4464

>  <SCORE.SYSTEM.norm>
-2.10465

>  <SCORE.heavy>
29

>  <SCORE.norm>
-2.78716

$$$$
OHT.pdb
  rDOCK(R)          3D
libRbt.so/2013.1/901 2013/11/27
 30 32  0  0  0  0  0  0  0  0999 V2000
   69.0085   39.2957   79.5810 C   0  0  0  0  0  0
   68.8041   38.0532   78.7585 C   0  0  0  0  0  0
   68.1921   36.9266   79.5650 C   0  0  0  0  0  0
   67.6494   37.3623   80.8880 C   0  0  0  0  0  0
   66.2979   37.7458   81.0204 C   0  0  0  0  0  0
   65.7810   38.1051   82.2656 C   0  0  0  0  0  0
   66.5760   38.0978   83.3948 C   0  0  0  0  0  0
   67.8953   37.7282   83.2838 C   0  0  0  0  0  0
   68.4250   37.3638   82.0409 C   0  0  0  0  0  0
   68.1465   35.6382   79.1150 C   0  0  0  0  0  0
   67.8744   34.4475   80.0013 C   0  0  0  0  0  0
   66.5443   34.0006   80.2757 C   0  0  0  0  0  0
   66.3175   32.9237   81.1448 C   0  0  0  0  0  0
   67.4170   32.2836   81.7473 C   0  0  0  0  0  0
   67.1701   31.2525   82.6037 O   0  0  0  0  0  0
   68.7365   32.7149   81.4811 C   0  0  0  0  0  0
   68.9396   33.7844   80.6182 C   0  0  0  0  0  0
   68.3775   35.2851   77.7110 C   0  0  0  0  0  0
   67.4601   35.6117   76.7151 C   0  0  0  0  0  0
   67.6698   35.3128   75.3984 C   0  0  0  0  0  0
   68.8351   34.6631   75.0243 C   0  0  0  0  0  0
   69.1394   34.3606   73.7280 O   0  0  0  0  0  0
   69.2173   32.9993   73.3157 C   0  0  0  0  0  0
   67.8946   32.6686   72.6790 C   0  0  0  0  0  0
   67.7071   33.2739   71.3890 N   0  0  0  0  0  0
   68.0393   32.3492   70.3042 C   0  0  0  0  0  0
   66.3040   33.6743   71.2337 C   0  0  0  0  0  0
   69.7824   34.3152   76.0029 C   0  0  0  0  0  0
   69.5483   34.6256   77.3131 C   0  0  0  0  0  0
   66.4198   30.7061   82.4752 H   0  0  0  0  0  0
  1  2  1  0  0  0
  2  3  1  0  0  0
  3  4  1  0  0  0
  3 10  1  0  0  0
  4  5  2  0  0  0
  4  9  1  0  0  0
  5  6  1  0  0  0
  6  7  2  0  0  0
  7  8  1  0  0  0
  8  9  2  0  0  0
 10 11  1  0  0  0
 10 18  1  0  0  0
 11 12  2  0  0  0
 11 17  1  0  0  0
 12 13  1  0  0  0
 13 14  2  0  0  0
 14 15  1  0  0  0
 14 16  1  0  0  0
 15 30  1  0  0  0
 16 17  2  0  0  0
 18 19  2  0  0  0
 18 29  1  0  0  0
 19 20  1  0  0  0
 20 21  2  0  0  0
 21 22  1  0  0  0
 21 28  1  0  0  0
 22 23  1  0  0  0
 23 24  1  0  0  0
 24 25  1  0  0  0
 25 26  1  0  0  0
 25 27  1  0  0  0
 28 29  2  0  0  0
M  END
>  <CHROM.0>
72.62115871,-59.19688951,137.51197812,162.38274681

>  <CHROM.1>
12.72906047,92.20549235,163.91893589,87.49994353,-69.98954738,30.98683634
-114.35997105,97.78636364,72.49266181,97.04962422,67.92355559,35.01402975
78.11342715,-2.27036215,-1.46502429,-2.55610958

>  <FORMUL>
      OHT    C26 H29 N1 O2

>  <HET>
 OHT  A 600      29

>  <HETNAM>
     OHT 4-HYDROXYTAMOXIFEN

>  <Name>
OHT.pdb

>  <RI>
0

>  <Rbt.Current_Directory>
/home/malgorzata/Desktop/rDOCK_IFD/Wyniki/5a_estrogen_receptor

>  <Rbt.Executable>
rbdock ($Id: //depot/dev/client3/rdock/2013.1/src/exe/rbdock.cxx#4 $)

>  <Rbt.Library>
libRbt.so (2013.1, Build901 2013/11/27)

>  <Rbt.Parameter_File>
/home/malgorzata/Desktop/rDock_2013.1_src/data/scripts/soft_docking.prm

>  <Rbt.Receptor>
cavity.prm

>  <SCORE>
-78.1532

>  <SCORE.INTER>
-17.0779

>  <SCORE.INTER.CONST>
1

>  <SCORE.INTER.POLAR>
0

>  <SCORE.INTER.REPUL>
0

>  <SCORE.INTER.ROT>
9

>  <SCORE.INTER.VDW>
-31.4779

>  <SCORE.INTER.norm>
-0.588894

>  <SCORE.INTRA>
-0.030356

>  <SCORE.INTRA.DIHEDRAL>
4.00592

>  <SCORE.INTRA.DIHEDRAL.0>
14.7815

>  <SCORE.INTRA.POLAR>
0

>  <SCORE.INTRA.POLAR.0>
0

>  <SCORE.INTRA.REPUL>
0

>  <SCORE.INTRA.REPUL.0>
0

>  <SCORE.INTRA.VDW>
-0.83154

>  <SCORE.INTRA.VDW.0>
-0.0652974

>  <SCORE.INTRA.norm>
-0.00104676

>  <SCORE.RESTR>
0

>  <SCORE.RESTR.CAVITY>
0

>  <SCORE.RESTR.norm>
0

>  <SCORE.SYSTEM>
-61.0449

>  <SCORE.SYSTEM.CONST>
0

>  <SCORE.SYSTEM.DIHEDRAL>
1.37774

>  <SCORE.SYSTEM.POLAR>
-0.272182

>  <SCORE.SYSTEM.REPUL>
0.0781624

>  <SCORE.SYSTEM.VDW>
-61.1992

>  <SCORE.SYSTEM.norm>
-2.105

>  <SCORE.heavy>
29

>  <SCORE.norm>
-2.69494

$$$$
OHT.pdb
  rDOCK(R)          3D
libRbt.so/2013.1/901 2013/11/27
 30 32  0  0  0  0  0  0  0  0999 V2000
   68.3788   31.2867   70.9683 C   0  0  0  0  0  0
   68.0313   32.6729   70.4992 C   0  0  0  0  0  0
   67.9894   33.6696   71.6389 C   0  0  0  0  0  0
   68.2151   35.0831   71.2080 C   0  0  0  0  0  0
   67.6384   35.5731   70.0171 C   0  0  0  0  0  0
   67.8097   36.9060   69.6419 C   0  0  0  0  0  0
   68.5475   37.7753   70.4212 C   0  0  0  0  0  0
   69.1176   37.3144   71.5840 C   0  0  0  0  0  0
   68.9513   35.9802   71.9722 C   0  0  0  0  0  0
   67.7657   33.2993   72.9340 C   0  0  0  0  0  0
   66.8138   32.2016   73.3419 C   0  0  0  0  0  0
   67.2778   30.9737   73.9085 C   0  0  0  0  0  0
   66.3756   29.9494   74.2301 C   0  0  0  0  0  0
   65.0022   30.1425   73.9889 C   0  0  0  0  0  0
   64.1475   29.1248   74.2911 O   0  0  0  0  0  0
   64.5318   31.3534   73.4319 C   0  0  0  0  0  0
   65.4421   32.3551   73.1192 C   0  0  0  0  0  0
   68.4271   33.9544   74.0666 C   0  0  0  0  0  0
   69.5420   33.3941   74.6853 C   0  0  0  0  0  0
   70.1863   34.0021   75.7257 C   0  0  0  0  0  0
   69.7264   35.2233   76.1918 C   0  0  0  0  0  0
   70.3327   35.9149   77.2011 O   0  0  0  0  0  0
   69.6694   37.0238   77.8006 C   0  0  0  0  0  0
   69.0924   36.5268   79.0985 C   0  0  0  0  0  0
   70.0863   36.1773   80.0762 N   0  0  0  0  0  0
   70.3340   37.2751   81.0119 C   0  0  0  0  0  0
   69.6296   35.0151   80.8468 C   0  0  0  0  0  0
   68.6017   35.8174   75.5933 C   0  0  0  0  0  0
   67.9754   35.1883   74.5542 C   0  0  0  0  0  0
   63.5134   29.2323   74.9726 H   0  0  0  0  0  0
  1  2  1  0  0  0
  2  3  1  0  0  0
  3  4  1  0  0  0
  3 10  1  0  0  0
  4  5  2  0  0  0
  4  9  1  0  0  0
  5  6  1  0  0  0
  6  7  2  0  0  0
  7  8  1  0  0  0
  8  9  2  0  0  0
 10 11  1  0  0  0
 10 18  1  0  0  0
 11 12  2  0  0  0
 11 17  1  0  0  0
 12 13  1  0  0  0
 13 14  2  0  0  0
 14 15  1  0  0  0
 14 16  1  0  0  0
 15 30  1  0  0  0
 16 17  2  0  0  0
 18 19  2  0  0  0
 18 29  1  0  0  0
 19 20  1  0  0  0
 20 21  2  0  0  0
 21 22  1  0  0  0
 21 28  1  0  0  0
 22 23  1  0  0  0
 23 24  1  0  0  0
 24 25  1  0  0  0
 25 26  1  0  0  0
 25 27  1  0  0  0
 28 29  2  0  0  0
M  END
>  <CHROM.0>
85.18631497,-60.83659991,-11.23240370,-164.28790410

>  <CHROM.1>
156.01289151,40.42942842,-36.99525386,111.80053010,-99.40877421,114.40749728
-167.88573604,100.96773553,67.26899123,96.08678249,68.13806937,34.17131263
74.38675509,2.36424059,-1.04375259,-1.32627595

>  <FORMUL>
      OHT    C26 H29 N1 O2

>  <HET>
 OHT  A 600      29

>  <HETNAM>
     OHT 4-HYDROXYTAMOXIFEN

>  <Name>
OHT.pdb

>  <RI>
0

>  <Rbt.Current_Directory>
/home/malgorzata/Desktop/rDOCK_IFD/Wyniki/5a_estrogen_receptor

>  <Rbt.Executable>
rbdock ($Id: //depot/dev/client3/rdock/2013.1/src/exe/rbdock.cxx#4 $)

>  <Rbt.Library>
libRbt.so (2013.1, Build901 2013/11/27)

>  <Rbt.Parameter_File>
/home/malgorzata/Desktop/rDock_2013.1_src/data/scripts/soft_docking.prm

>  <Rbt.Receptor>
cavity.prm

>  <SCORE>
-81.4117

>  <SCORE.INTER>
-23.0901

>  <SCORE.INTER.CONST>
1

>  <SCORE.INTER.POLAR>
-0.480625

>  <SCORE.INTER.REPUL>
0.0252951

>  <SCORE.INTER.ROT>
9

>  <SCORE.INTER.VDW>
-35.9825

>  <SCORE.INTER.norm>
-0.796211

>  <SCORE.INTRA>
3.15705

>  <SCORE.INTRA.DIHEDRAL>
4.537

>  <SCORE.INTRA.DIHEDRAL.0>
14.7815

>  <SCORE.INTRA.POLAR>
0

>  <SCORE.INTRA.POLAR.0>
0

>  <SCORE.INTRA.REPUL>
0

>  <SCORE.INTRA.REPUL.0>
0

>  <SCORE.INTRA.VDW>
2.24965

>  <SCORE.INTRA.VDW.0>
-0.0652974

>  <SCORE.INTRA.norm>
0.108864

>  <SCORE.RESTR>
0

>  <SCORE.RESTR.CAVITY>
0

>  <SCORE.RESTR.norm>
0

>  <SCORE.SYSTEM>
-61.4787

>  <SCORE.SYSTEM.CONST>
0

>  <SCORE.SYSTEM.DIHEDRAL>
1.31535

>  <SCORE.SYSTEM.POLAR>
-0.170193

>  <SCORE.SYSTEM.REPUL>
0.137663

>  <SCORE.SYSTEM.VDW>
-62.246

>  <SCORE.SYSTEM.norm>
-2.11995

>  <SCORE.heavy>
29

>  <SCORE.norm>
-2.8073

$$$$
OHT.pdb
  rDOCK(R)          3D
libRbt.so/2013.1/901 2013/11/27
 30 32  0  0  0  0  0  0  0  0999 V2000
   65.3095   31.0948   72.1389 C   0  0  0  0  0  0
   66.7009   30.7268   71.7022 C   0  0  0  0  0  0
   67.4017   31.8704   70.9986 C   0  0  0  0  0  0
   67.8644   31.5319   69.6181 C   0  0  0  0  0  0
   66.9329   31.2740   68.5900 C   0  0  0  0  0  0
   67.3660   31.0065   67.2909 C   0  0  0  0  0  0
   68.7113   30.9841   66.9799 C   0  0  0  0  0  0
   69.6326   31.2317   67.9695 C   0  0  0  0  0  0
   69.2108   31.5034   69.2759 C   0  0  0  0  0  0
   67.5874   33.0913   71.5814 C   0  0  0  0  0  0
   67.4032   34.4038   70.8598 C   0  0  0  0  0  0
   68.5167   35.2060   70.4587 C   0  0  0  0  0  0
   68.3160   36.4465   69.8363 C   0  0  0  0  0  0
   67.0018   36.8966   69.6088 C   0  0  0  0  0  0
   66.8324   38.1144   69.0206 O   0  0  0  0  0  0
   65.8934   36.1107   69.9983 C   0  0  0  0  0  0
   66.1137   34.8854   70.6146 C   0  0  0  0  0  0
   68.0051   33.2424   72.9785 C   0  0  0  0  0  0
   67.0921   33.5477   73.9851 C   0  0  0  0  0  0
   67.4588   33.6679   75.2959 C   0  0  0  0  0  0
   68.7843   33.4793   75.6527 C   0  0  0  0  0  0
   69.2281   33.5448   76.9424 O   0  0  0  0  0  0
   68.9655   32.4699   77.8394 C   0  0  0  0  0  0
   68.5138   33.0924   79.1328 C   0  0  0  0  0  0
   69.5018   33.0397   80.1752 N   0  0  0  0  0  0
   69.1006   33.8282   81.3412 C   0  0  0  0  0  0
   69.6872   31.6494   80.6063 C   0  0  0  0  0  0
   69.7343   33.1728   74.6630 C   0  0  0  0  0  0
   69.3413   33.0583   73.3590 C   0  0  0  0  0  0
   66.2631   38.7481   69.4108 H   0  0  0  0  0  0
  1  2  1  0  0  0
  2  3  1  0  0  0
  3  4  1  0  0  0
  3 10  1  0  0  0
  4  5  2  0  0  0
  4  9  1  0  0  0
  5  6  1  0  0  0
  6  7  2  0  0  0
  7  8  1  0  0  0
  8  9  2  0  0  0
 10 11  1  0  0  0
 10 18  1  0  0  0
 11 12  2  0  0  0
 11 17  1  0  0  0
 12 13  1  0  0  0
 13 14  2  0  0  0
 14 15  1  0  0  0
 14 16  1  0  0  0
 15 30  1  0  0  0
 16 17  2  0  0  0
 18 19  2  0  0  0
 18 29  1  0  0  0
 19 20  1  0  0  0
 20 21  2  0  0  0
 21 22  1  0  0  0
 21 28  1  0  0  0
 22 23  1  0  0  0
 23 24  1  0  0  0
 24 25  1  0  0  0
 25 26  1  0  0  0
 25 27  1  0  0  0
 28 29  2  0  0  0
M  END
>  <CHROM.0>
80.84843918,-59.96821990,-8.16501908,52.74462672

>  <CHROM.1>
-122.70700056,66.86783571,-138.26876368,-105.97427171,-100.69771646,-128.97823231
75.25437880,-135.45254207,-106.09144843,171.41978535,68.01012229,33.26658979
72.84437462,-2.34281412,-1.35686380,0.84664924

>  <FORMUL>
      OHT    C26 H29 N1 O2

>  <HET>
 OHT  A 600      29

>  <HETNAM>
     OHT 4-HYDROXYTAMOXIFEN

>  <Name>
OHT.pdb

>  <RI>
0

>  <Rbt.Current_Directory>
/home/malgorzata/Desktop/rDOCK_IFD/Wyniki/5a_estrogen_receptor

>  <Rbt.Executable>
rbdock ($Id: //depot/dev/client3/rdock/2013.1/src/exe/rbdock.cxx#4 $)

>  <Rbt.Library>
libRbt.so (2013.1, Build901 2013/11/27)

>  <Rbt.Parameter_File>
/home/malgorzata/Desktop/rDock_2013.1_src/data/scripts/soft_docking.prm

>  <Rbt.Receptor>
cavity.prm

>  <SCORE>
-78.1912

>  <SCORE.INTER>
-17.1091

>  <SCORE.INTER.CONST>
1

>  <SCORE.INTER.POLAR>
0

>  <SCORE.INTER.REPUL>
0

>  <SCORE.INTER.ROT>
9

>  <SCORE.INTER.VDW>
-31.5091

>  <SCORE.INTER.norm>
-0.589968

>  <SCORE.INTRA>
-0.743055

>  <SCORE.INTRA.DIHEDRAL>
10.0763

>  <SCORE.INTRA.DIHEDRAL.0>
14.7815

>  <SCORE.INTRA.POLAR>
0

>  <SCORE.INTRA.POLAR.0>
0

>  <SCORE.INTRA.REPUL>
0

>  <SCORE.INTRA.REPUL.0>
0

>  <SCORE.INTRA.VDW>
-2.75831

>  <SCORE.INTRA.VDW.0>
-0.0652974

>  <SCORE.INTRA.norm>
-0.0256226

>  <SCORE.RESTR>
0.245828

>  <SCORE.RESTR.CAVITY>
0.245828

>  <SCORE.RESTR.norm>
0.00847684

>  <SCORE.SYSTEM>
-60.5849

>  <SCORE.SYSTEM.CONST>
0

>  <SCORE.SYSTEM.DIHEDRAL>
3.99782

>  <SCORE.SYSTEM.POLAR>
-0.235076

>  <SCORE.SYSTEM.REPUL>
0.10861

>  <SCORE.SYSTEM.VDW>
-62.3276

>  <SCORE.SYSTEM.norm>
-2.08913

>  <SCORE.heavy>
29

>  <SCORE.norm>
-2.69625

$$$$
OHT.pdb
  rDOCK(R)          3D
libRbt.so/2013.1/901 2013/11/27
 30 32  0  0  0  0  0  0  0  0999 V2000
   68.5824   30.8616   71.6324 C   0  0  0  0  0  0
   68.4551   31.9282   72.6853 C   0  0  0  0  0  0
   67.2301   32.7944   72.4779 C   0  0  0  0  0  0
   65.9976   32.0191   72.1397 C   0  0  0  0  0  0
   65.3037   32.2603   70.9349 C   0  0  0  0  0  0
   64.1820   31.5021   70.5981 C   0  0  0  0  0  0
   63.7220   30.5026   71.4329 C   0  0  0  0  0  0
   64.3851   30.2550   72.6112 C   0  0  0  0  0  0
   65.5127   31.0072   72.9593 C   0  0  0  0  0  0
   67.2615   34.1548   72.5918 C   0  0  0  0  0  0
   67.2778   35.0968   71.4129 C   0  0  0  0  0  0
   68.4518   35.8264   71.0474 C   0  0  0  0  0  0
   68.4248   36.7347   69.9794 C   0  0  0  0  0  0
   67.2253   36.9221   69.2668 C   0  0  0  0  0  0
   67.2187   37.8250   68.2458 O   0  0  0  0  0  0
   66.0593   36.2041   69.6172 C   0  0  0  0  0  0
   66.1068   35.3099   70.6793 C   0  0  0  0  0  0
   67.2995   34.8365   73.8892 C   0  0  0  0  0  0
   68.4907   35.3179   74.4269 C   0  0  0  0  0  0
   68.5419   35.9774   75.6226 C   0  0  0  0  0  0
   67.3728   36.1847   76.3370 C   0  0  0  0  0  0
   67.3302   36.8651   77.5201 O   0  0  0  0  0  0
   68.4074   37.7224   77.8857 C   0  0  0  0  0  0
   68.3284   37.8963   79.3783 C   0  0  0  0  0  0
   66.9891   37.8375   79.8965 N   0  0  0  0  0  0
   66.9571   37.2847   81.2513 C   0  0  0  0  0  0
   66.4202   39.1894   79.9417 C   0  0  0  0  0  0
   66.1522   35.7100   75.8264 C   0  0  0  0  0  0
   66.1285   35.0534   74.6280 C   0  0  0  0  0  0
   66.4588   38.3507   68.0901 H   0  0  0  0  0  0
  1  2  1  0  0  0
  2  3  1  0  0  0
  3  4  1  0  0  0
  3 10  1  0  0  0
  4  5  2  0  0  0
  4  9  1  0  0  0
  5  6  1  0  0  0
  6  7  2  0  0  0
  7  8  1  0  0  0
  8  9  2  0  0  0
 10 11  1  0  0  0
 10 18  1  0  0  0
 11 12  2  0  0  0
 11 17  1  0  0  0
 12 13  1  0  0  0
 13 14  2  0  0  0
 14 15  1  0  0  0
 14 16  1  0  0  0
 15 30  1  0  0  0
 16 17  2  0  0  0
 18 19  2  0  0  0
 18 29  1  0  0  0
 19 20  1  0  0  0
 20 21  2  0  0  0
 21 22  1  0  0  0
 21 28  1  0  0  0
 22 23  1  0  0  0
 23 24  1  0  0  0
 24 25  1  0  0  0
 25 26  1  0  0  0
 25 27  1  0  0  0
 28 29  2  0  0  0
M  END
>  <CHROM.0>
-50.91841087,-59.21108423,-51.13874346,-106.14493539

>  <CHROM.1>
44.18288567,-121.17045634,102.77624956,-107.51660990,99.15673994,-143.51524480
18.26633099,-159.20248562,-31.17538054,148.71294264,66.91167561,34.93925765
73.77355178,1.95750568,-1.25034795,-1.69074417

>  <FORMUL>
      OHT    C26 H29 N1 O2

>  <HET>
 OHT  A 600      29

>  <HETNAM>
     OHT 4-HYDROXYTAMOXIFEN

>  <Name>
OHT.pdb

>  <RI>
0

>  <Rbt.Current_Directory>
/home/malgorzata/Desktop/rDOCK_IFD/Wyniki/5a_estrogen_receptor

>  <Rbt.Executable>
rbdock ($Id: //depot/dev/client3/rdock/2013.1/src/exe/rbdock.cxx#4 $)

>  <Rbt.Library>
libRbt.so (2013.1, Build901 2013/11/27)

>  <Rbt.Parameter_File>
/home/malgorzata/Desktop/rDock_2013.1_src/data/scripts/soft_docking.prm

>  <Rbt.Receptor>
cavity.prm

>  <SCORE>
-80.0762

>  <SCORE.INTER>
-19.4324

>  <SCORE.INTER.CONST>
1

>  <SCORE.INTER.POLAR>
-0.346998

>  <SCORE.INTER.REPUL>
0.00641644

>  <SCORE.INTER.ROT>
9

>  <SCORE.INTER.VDW>
-32.6846

>  <SCORE.INTER.norm>
-0.670081

>  <SCORE.INTRA>
-1.22877

>  <SCORE.INTRA.DIHEDRAL>
1.77302

>  <SCORE.INTRA.DIHEDRAL.0>
14.7815

>  <SCORE.INTRA.POLAR>
0

>  <SCORE.INTRA.POLAR.0>
0

>  <SCORE.INTRA.REPUL>
0

>  <SCORE.INTRA.REPUL.0>
0

>  <SCORE.INTRA.VDW>
-1.58338

>  <SCORE.INTRA.VDW.0>
-0.0652974

>  <SCORE.INTRA.norm>
-0.0423715

>  <SCORE.RESTR>
0.0323228

>  <SCORE.RESTR.CAVITY>
0.0323228

>  <SCORE.RESTR.norm>
0.00111458

>  <SCORE.SYSTEM>
-59.4474

>  <SCORE.SYSTEM.CONST>
0

>  <SCORE.SYSTEM.DIHEDRAL>
5.37847

>  <SCORE.SYSTEM.POLAR>
-0.271611

>  <SCORE.SYSTEM.REPUL>
0.0787526

>  <SCORE.SYSTEM.VDW>
-61.6069

>  <SCORE.SYSTEM.norm>
-2.04991

>  <SCORE.heavy>
29

>  <SCORE.norm>
-2.76125

$$$$
OHT.pdb
  rDOCK(R)          3D
libRbt.so/2013.1/901 2013/11/27
 30 32  0  0  0  0  0  0  0  0999 V2000
   64.8441   34.6997   70.1259 C   0  0  0  0  0  0
   66.2173   34.9131   69.5506 C   0  0  0  0  0  0
   67.3102   34.6633   70.5691 C   0  0  0  0  0  0
   68.2224   35.8307   70.7685 C   0  0  0  0  0  0
   67.7949   37.1391   70.4584 C   0  0  0  0  0  0
   68.6300   38.2323   70.6911 C   0  0  0  0  0  0
   69.8920   38.0624   71.2256 C   0  0  0  0  0  0
   70.3252   36.7945   71.5323 C   0  0  0  0  0  0
   69.4962   35.6901   71.3055 C   0  0  0  0  0  0
   67.4395   33.4787   71.2359 C   0  0  0  0  0  0
   67.1333   32.1329   70.6254 C   0  0  0  0  0  0
   67.2791   31.8904   69.2239 C   0  0  0  0  0  0
   66.9375   30.6460   68.6750 C   0  0  0  0  0  0
   66.4477   29.6329   69.5208 C   0  0  0  0  0  0
   66.1036   28.4389   68.9609 O   0  0  0  0  0  0
   66.3023   29.8604   70.9083 C   0  0  0  0  0  0
   66.6451   31.1005   71.4320 C   0  0  0  0  0  0
   67.8787   33.4042   72.6326 C   0  0  0  0  0  0
   69.1965   33.1039   72.9690 C   0  0  0  0  0  0
   69.6297   33.0544   74.2640 C   0  0  0  0  0  0
   68.7368   33.3129   75.2916 C   0  0  0  0  0  0
   69.0949   33.3204   76.6092 O   0  0  0  0  0  0
   69.6793   32.1601   77.1931 C   0  0  0  0  0  0
   69.7978   32.4362   78.6676 C   0  0  0  0  0  0
   68.6033   32.9830   79.2506 N   0  0  0  0  0  0
   68.0314   32.0848   80.2548 C   0  0  0  0  0  0
   68.9157   34.2589   79.9045 C   0  0  0  0  0  0
   67.3979   33.6166   74.9896 C   0  0  0  0  0  0
   66.9902   33.6596   73.6859 C   0  0  0  0  0  0
   66.5479   27.6552   69.2187 H   0  0  0  0  0  0
  1  2  1  0  0  0
  2  3  1  0  0  0
  3  4  1  0  0  0
  3 10  1  0  0  0
  4  5  2  0  0  0
  4  9  1  0  0  0
  5  6  1  0  0  0
  6  7  2  0  0  0
  7  8  1  0  0  0
  8  9  2  0  0  0
 10 11  1  0  0  0
 10 18  1  0  0  0
 11 12  2  0  0  0
 11 17  1  0  0  0
 12 13  1  0  0  0
 13 14  2  0  0  0
 14 15  1  0  0  0
 14 16  1  0  0  0
 15 30  1  0  0  0
 16 17  2  0  0  0
 18 19  2  0  0  0
 18 29  1  0  0  0
 19 20  1  0  0  0
 20 21  2  0  0  0
 21 22  1  0  0  0
 21 28  1  0  0  0
 22 23  1  0  0  0
 23 24  1  0  0  0
 24 25  1  0  0  0
 25 26  1  0  0  0
 25 27  1  0  0  0
 28 29  2  0  0  0
M  END
>  <CHROM.0>
-137.46438038,-59.17447353,157.90375236,77.21410602

>  <CHROM.1>
-123.27640222,23.25778933,35.11477421,29.33754974,-99.02411619,118.67746252
-57.89270327,-173.32627644,46.97572061,116.55710509,67.95434638,33.42190979
72.94404906,-2.26427210,1.21305709,2.21184403

>  <FORMUL>
      OHT    C26 H29 N1 O2

>  <HET>
 OHT  A 600      29

>  <HETNAM>
     OHT 4-HYDROXYTAMOXIFEN

>  <Name>
OHT.pdb

>  <RI>
0

>  <Rbt.Current_Directory>
/home/malgorzata/Desktop/rDOCK_IFD/Wyniki/5a_estrogen_receptor

>  <Rbt.Executable>
rbdock ($Id: //depot/dev/client3/rdock/2013.1/src/exe/rbdock.cxx#4 $)

>  <Rbt.Library>
libRbt.so (2013.1, Build901 2013/11/27)

>  <Rbt.Parameter_File>
/home/malgorzata/Desktop/rDock_2013.1_src/data/scripts/soft_docking.prm

>  <Rbt.Receptor>
cavity.prm

>  <SCORE>
-82.178

>  <SCORE.INTER>
-21.7543

>  <SCORE.INTER.CONST>
1

>  <SCORE.INTER.POLAR>
0

>  <SCORE.INTER.REPUL>
0

>  <SCORE.INTER.ROT>
9

>  <SCORE.INTER.VDW>
-36.1543

>  <SCORE.INTER.norm>
-0.750149

>  <SCORE.INTRA>
-1.43965

>  <SCORE.INTRA.DIHEDRAL>
1.71036

>  <SCORE.INTRA.DIHEDRAL.0>
14.7815

>  <SCORE.INTRA.POLAR>
0

>  <SCORE.INTRA.POLAR.0>
0

>  <SCORE.INTRA.REPUL>
0

>  <SCORE.INTRA.REPUL.0>
0

>  <SCORE.INTRA.VDW>
-1.78172

>  <SCORE.INTRA.VDW.0>
-0.0652974

>  <SCORE.INTRA.norm>
-0.0496429

>  <SCORE.RESTR>
0.040216

>  <SCORE.RESTR.CAVITY>
0.040216

>  <SCORE.RESTR.norm>
0.00138676

>  <SCORE.SYSTEM>
-59.0243

>  <SCORE.SYSTEM.CONST>
0

>  <SCORE.SYSTEM.DIHEDRAL>
5.50769

>  <SCORE.SYSTEM.POLAR>
-0.273074

>  <SCORE.SYSTEM.REPUL>
0.0772285

>  <SCORE.SYSTEM.VDW>
-61.2358

>  <SCORE.SYSTEM.norm>
-2.03532

>  <SCORE.heavy>
29

>  <SCORE.norm>
-2.83372

$$$$
