S58.pdb
  rDOCK(R)          3D
libRbt.so/2013.1/901 2013/11/27
 28 30  0  0  0  0  0  0  0  0999 V2000
   22.3293   29.4314   26.3715 C   0  0  0  0  0  0
   23.1103   28.9171   27.3614 C   0  0  0  0  0  0
   23.0544   30.6269   25.8515 C   0  0  0  0  0  0
   22.6033   31.6194   24.8220 C   0  0  0  0  0  0
   25.4340   29.3725   28.0883 C   0  0  0  0  0  0
   25.6909   29.9744   29.3266 C   0  0  0  0  0  0
   26.8481   29.6474   30.0177 C   0  0  0  0  0  0
   27.7499   28.7090   29.4651 C   0  0  0  0  0  0
   27.4884   28.1062   28.2233 C   0  0  0  0  0  0
   26.3232   28.4435   27.5304 C   0  0  0  0  0  0
   22.7427   27.7393   28.2056 C   0  0  0  0  0  0
   22.1415   26.6062   27.6008 C   0  0  0  0  0  0
   21.9276   25.4343   28.3499 C   0  0  0  0  0  0
   22.3121   25.3859   29.6873 C   0  0  0  0  0  0
   22.8778   26.5103   30.2984 C   0  0  0  0  0  0
   23.0969   27.6944   29.5556 C   0  0  0  0  0  0
   24.2491   29.6822   27.4721 N   0  0  0  0  0  0
   24.1803   30.7313   26.5035 N   0  0  0  0  0  0
   30.5574   28.0819   29.1962 N   0  0  0  0  0  0
   29.0353   27.0551   31.1017 O   0  0  0  0  0  0
   29.5682   29.3289   31.2853 O   0  0  0  0  0  0
   22.2241   23.7825   30.5977 Br  0  0  0  0  0  0
   21.9886   30.9647   23.8054 F   0  0  0  0  0  0
   23.6515   32.3372   24.3888 F   0  0  0  0  0  0
   21.7208   32.4409   25.4014 F   0  0  0  0  0  0
   29.2672   28.2618   30.3727 S   0  0  0  0  0  0
   30.3998   27.5704   28.3783 H   0  0  0  0  0  0
   31.4330   28.4950   29.3569 H   0  0  0  0  0  0
  1  3  1  0  0  0
  2  1  2  0  0  0
  2 17  1  0  0  0
  3 18  2  0  0  0
  3  4  1  0  0  0
  4 23  1  0  0  0
  4 25  1  0  0  0
  5 17  1  0  0  0
  5  6  2  0  0  0
  7  6  1  0  0  0
  8  7  2  0  0  0
  9 10  2  0  0  0
  9  8  1  0  0  0
 10  5  1  0  0  0
 11  2  1  0  0  0
 12 11  1  0  0  0
 13 12  2  0  0  0
 14 15  2  0  0  0
 14 13  1  0  0  0
 15 16  1  0  0  0
 16 11  2  0  0  0
 17 18  1  0  0  0
 19 28  1  0  0  0
 20 26  2  0  0  0
 22 14  1  0  0  0
 24  4  1  0  0  0
 26  8  1  0  0  0
 26 19  1  0  0  0
 26 21  2  0  0  0
 27 19  1  0  0  0
M  END
>  <CHROM.0>
-71.05919159,-93.23882948,-79.08289349

>  <CHROM.1>
-41.49710321,-104.59432503,42.20945614,-141.63598311,-46.21417990,24.54639858
28.08559440,28.48566648,1.85568681,-0.34137348,-0.64825139

>  <FORMUL>
      S58    C16 H11 Br1 F3 N3 O2 S1

>  <HET>
 S58  A 701      28

>  <HETNAM>
     S58 1-PHENYLSULFONAMIDE-3-TRIFLUOROMETHYL-5-PARABROMOPHENYL
   2 S58 PYRAZOLE

>  <Name>
S58.pdb

>  <RI>
0

>  <Rbt.Current_Directory>
/home/malgorzata/Desktop/rDOCK_IFD/Wyniki/3_COX2

>  <Rbt.Executable>
rbdock ($Id: //depot/dev/client3/rdock/2013.1/src/exe/rbdock.cxx#4 $)

>  <Rbt.Library>
libRbt.so (2013.1, Build901 2013/11/27)

>  <Rbt.Parameter_File>
/home/malgorzata/Desktop/rDock_2013.1_src/data/scripts/soft_docking.prm

>  <Rbt.Receptor>
cavity.prm

>  <SCORE>
-26.4668

>  <SCORE.INTER>
-23.2715

>  <SCORE.INTER.CONST>
1

>  <SCORE.INTER.POLAR>
-2.55949

>  <SCORE.INTER.REPUL>
0

>  <SCORE.INTER.ROT>
5

>  <SCORE.INTER.VDW>
-24.9692

>  <SCORE.INTER.norm>
-0.895057

>  <SCORE.INTRA>
-0.171859

>  <SCORE.INTRA.DIHEDRAL>
2.26929

>  <SCORE.INTRA.DIHEDRAL.0>
18.1022

>  <SCORE.INTRA.POLAR>
0

>  <SCORE.INTRA.POLAR.0>
0

>  <SCORE.INTRA.REPUL>
0

>  <SCORE.INTRA.REPUL.0>
0

>  <SCORE.INTRA.VDW>
-0.625716

>  <SCORE.INTRA.VDW.0>
-2.81782

>  <SCORE.INTRA.norm>
-0.00660997

>  <SCORE.RESTR>
0.0811771

>  <SCORE.RESTR.CAVITY>
0.0811771

>  <SCORE.RESTR.norm>
0.0031222

>  <SCORE.SYSTEM>
-3.10458

>  <SCORE.SYSTEM.CONST>
0

>  <SCORE.SYSTEM.DIHEDRAL>
2.45374

>  <SCORE.SYSTEM.POLAR>
-0.817991

>  <SCORE.SYSTEM.VDW>
-1.55028

>  <SCORE.SYSTEM.norm>
-0.119407

>  <SCORE.heavy>
26

>  <SCORE.norm>
-1.01795

$$$$
S58.pdb
  rDOCK(R)          3D
libRbt.so/2013.1/901 2013/11/27
 28 30  0  0  0  0  0  0  0  0999 V2000
   24.8213   32.1008   26.3939 C   0  0  0  0  0  0
   25.4318   31.0738   27.0471 C   0  0  0  0  0  0
   25.5813   33.3320   26.7570 C   0  0  0  0  0  0
   25.2839   34.7559   26.3929 C   0  0  0  0  0  0
   27.5689   30.8928   28.2863 C   0  0  0  0  0  0
   28.8255   31.5058   28.2047 C   0  0  0  0  0  0
   29.9255   30.8874   28.7801 C   0  0  0  0  0  0
   29.7629   29.6496   29.4439 C   0  0  0  0  0  0
   28.5006   29.0380   29.5249 C   0  0  0  0  0  0
   27.3977   29.6641   28.9392 C   0  0  0  0  0  0
   24.9647   29.6540   27.0185 C   0  0  0  0  0  0
   25.9092   28.6106   26.8445 C   0  0  0  0  0  0
   25.5095   27.2668   26.9654 C   0  0  0  0  0  0
   24.1838   26.9613   27.2617 C   0  0  0  0  0  0
   23.2404   27.9848   27.4045 C   0  0  0  0  0  0
   23.6303   29.3395   27.2843 C   0  0  0  0  0  0
   26.5024   31.5710   27.7552 N   0  0  0  0  0  0
   26.5676   32.9822   27.5370 N   0  0  0  0  0  0
   31.5409   27.3767   29.3008 N   0  0  0  0  0  0
   30.8963   28.5511   31.5827 O   0  0  0  0  0  0
   32.3130   29.7407   30.1455 O   0  0  0  0  0  0
   23.7169   25.2133   27.6281 Br  0  0  0  0  0  0
   24.0415   34.8319   25.8536 F   0  0  0  0  0  0
   26.2206   35.2174   25.5496 F   0  0  0  0  0  0
   25.3111   35.4821   27.5160 F   0  0  0  0  0  0
   31.2006   28.8354   30.2159 S   0  0  0  0  0  0
   31.2704   26.5073   29.6561 H   0  0  0  0  0  0
   31.9986   27.4332   28.4345 H   0  0  0  0  0  0
  1  3  1  0  0  0
  2  1  2  0  0  0
  2 17  1  0  0  0
  3 18  2  0  0  0
  3  4  1  0  0  0
  4 23  1  0  0  0
  4 25  1  0  0  0
  5 17  1  0  0  0
  5  6  2  0  0  0
  7  6  1  0  0  0
  8  7  2  0  0  0
  9 10  2  0  0  0
  9  8  1  0  0  0
 10  5  1  0  0  0
 11  2  1  0  0  0
 12 11  1  0  0  0
 13 12  2  0  0  0
 14 15  2  0  0  0
 14 13  1  0  0  0
 15 16  1  0  0  0
 16 11  2  0  0  0
 17 18  1  0  0  0
 19 28  1  0  0  0
 20 26  2  0  0  0
 22 14  1  0  0  0
 24  4  1  0  0  0
 26  8  1  0  0  0
 26 19  1  0  0  0
 26 21  2  0  0  0
 27 19  1  0  0  0
M  END
>  <CHROM.0>
-6.52600315,63.55076932,-67.24063621

>  <CHROM.1>
11.10032139,141.02620110,135.95826118,-111.98703842,-102.74126628,26.62700244
29.77109136,27.95455161,1.47303755,-0.40640517,-0.19109664

>  <FORMUL>
      S58    C16 H11 Br1 F3 N3 O2 S1

>  <HET>
 S58  A 701      28

>  <HETNAM>
     S58 1-PHENYLSULFONAMIDE-3-TRIFLUOROMETHYL-5-PARABROMOPHENYL
   2 S58 PYRAZOLE

>  <Name>
S58.pdb

>  <RI>
0

>  <Rbt.Current_Directory>
/home/malgorzata/Desktop/rDOCK_IFD/Wyniki/3_COX2

>  <Rbt.Executable>
rbdock ($Id: //depot/dev/client3/rdock/2013.1/src/exe/rbdock.cxx#4 $)

>  <Rbt.Library>
libRbt.so (2013.1, Build901 2013/11/27)

>  <Rbt.Parameter_File>
/home/malgorzata/Desktop/rDock_2013.1_src/data/scripts/soft_docking.prm

>  <Rbt.Receptor>
cavity.prm

>  <SCORE>
-17.8765

>  <SCORE.INTER>
-14.134

>  <SCORE.INTER.CONST>
1

>  <SCORE.INTER.POLAR>
-2.02687

>  <SCORE.INTER.REPUL>
0.529041

>  <SCORE.INTER.ROT>
5

>  <SCORE.INTER.VDW>
-20.2878

>  <SCORE.INTER.norm>
-0.543615

>  <SCORE.INTRA>
0.657772

>  <SCORE.INTRA.DIHEDRAL>
-4.36931

>  <SCORE.INTRA.DIHEDRAL.0>
18.1022

>  <SCORE.INTRA.POLAR>
0

>  <SCORE.INTRA.POLAR.0>
0

>  <SCORE.INTRA.REPUL>
0

>  <SCORE.INTRA.REPUL.0>
0

>  <SCORE.INTRA.VDW>
1.53163

>  <SCORE.INTRA.VDW.0>
-2.81782

>  <SCORE.INTRA.norm>
0.0252989

>  <SCORE.RESTR>
0.00828912

>  <SCORE.RESTR.CAVITY>
0.00828912

>  <SCORE.RESTR.norm>
0.000318812

>  <SCORE.SYSTEM>
-4.4086

>  <SCORE.SYSTEM.CONST>
0

>  <SCORE.SYSTEM.DIHEDRAL>
1.06403

>  <SCORE.SYSTEM.POLAR>
-1.01514

>  <SCORE.SYSTEM.VDW>
-1.48914

>  <SCORE.SYSTEM.norm>
-0.169561

>  <SCORE.heavy>
26

>  <SCORE.norm>
-0.687559

$$$$
S58.pdb
  rDOCK(R)          3D
libRbt.so/2013.1/901 2013/11/27
 28 30  0  0  0  0  0  0  0  0999 V2000
   22.6177   29.5584   27.3661 C   0  0  0  0  0  0
   23.9019   30.0050   27.4413 C   0  0  0  0  0  0
   22.6778   28.0855   27.5948 C   0  0  0  0  0  0
   21.5653   27.0825   27.5267 C   0  0  0  0  0  0
   26.0165   28.9496   28.1827 C   0  0  0  0  0  0
   26.3552   29.9448   29.1083 C   0  0  0  0  0  0
   27.6288   29.9619   29.6571 C   0  0  0  0  0  0
   28.5659   28.9733   29.2780 C   0  0  0  0  0  0
   28.2224   27.9758   28.3502 C   0  0  0  0  0  0
   26.9393   27.9671   27.7978 C   0  0  0  0  0  0
   24.3213   31.4218   27.2139 C   0  0  0  0  0  0
   24.9254   31.7829   25.9828 C   0  0  0  0  0  0
   25.1881   33.1348   25.6931 C   0  0  0  0  0  0
   24.8490   34.1205   26.6161 C   0  0  0  0  0  0
   24.2806   33.7687   27.8453 C   0  0  0  0  0  0
   24.0128   32.4128   28.1481 C   0  0  0  0  0  0
   24.7282   28.9385   27.7140 N   0  0  0  0  0  0
   23.9231   27.7616   27.8142 N   0  0  0  0  0  0
   31.1256   27.6338   29.3083 N   0  0  0  0  0  0
   30.1296   28.8704   31.4251 O   0  0  0  0  0  0
   30.8667   30.2236   29.6607 O   0  0  0  0  0  0
   24.9999   35.8977   26.1400 Br  0  0  0  0  0  0
   20.4594   27.5968   28.1206 F   0  0  0  0  0  0
   21.9499   25.9332   28.1036 F   0  0  0  0  0  0
   21.2949   26.8547   26.2366 F   0  0  0  0  0  0
   30.2385   28.9789   30.0046 S   0  0  0  0  0  0
   31.9825   27.3663   29.6949 H   0  0  0  0  0  0
   30.7621   27.1501   28.5356 H   0  0  0  0  0  0
  1  3  1  0  0  0
  2  1  2  0  0  0
  2 17  1  0  0  0
  3 18  2  0  0  0
  3  4  1  0  0  0
  4 23  1  0  0  0
  4 25  1  0  0  0
  5 17  1  0  0  0
  5  6  2  0  0  0
  7  6  1  0  0  0
  8  7  2  0  0  0
  9 10  2  0  0  0
  9  8  1  0  0  0
 10  5  1  0  0  0
 11  2  1  0  0  0
 12 11  1  0  0  0
 13 12  2  0  0  0
 14 15  2  0  0  0
 14 13  1  0  0  0
 15 16  1  0  0  0
 16 11  2  0  0  0
 17 18  1  0  0  0
 19 28  1  0  0  0
 20 26  2  0  0  0
 22 14  1  0  0  0
 24  4  1  0  0  0
 26  8  1  0  0  0
 26 19  1  0  0  0
 26 21  2  0  0  0
 27 19  1  0  0  0
M  END
>  <CHROM.0>
147.94576012,-159.13071292,-60.29090138

>  <CHROM.1>
-42.16072466,35.88573193,-102.72186158,-179.66849194,-168.38109600,25.53578148
30.50379107,27.84147317,2.06972858,-0.31492381,-0.26230895

>  <FORMUL>
      S58    C16 H11 Br1 F3 N3 O2 S1

>  <HET>
 S58  A 701      28

>  <HETNAM>
     S58 1-PHENYLSULFONAMIDE-3-TRIFLUOROMETHYL-5-PARABROMOPHENYL
   2 S58 PYRAZOLE

>  <Name>
S58.pdb

>  <RI>
0

>  <Rbt.Current_Directory>
/home/malgorzata/Desktop/rDOCK_IFD/Wyniki/3_COX2

>  <Rbt.Executable>
rbdock ($Id: //depot/dev/client3/rdock/2013.1/src/exe/rbdock.cxx#4 $)

>  <Rbt.Library>
libRbt.so (2013.1, Build901 2013/11/27)

>  <Rbt.Parameter_File>
/home/malgorzata/Desktop/rDock_2013.1_src/data/scripts/soft_docking.prm

>  <Rbt.Receptor>
cavity.prm

>  <SCORE>
-21.1388

>  <SCORE.INTER>
-17.6581

>  <SCORE.INTER.CONST>
1

>  <SCORE.INTER.POLAR>
-1.98753

>  <SCORE.INTER.REPUL>
0

>  <SCORE.INTER.ROT>
5

>  <SCORE.INTER.VDW>
-21.3005

>  <SCORE.INTER.norm>
-0.679157

>  <SCORE.INTRA>
0.273788

>  <SCORE.INTRA.DIHEDRAL>
2.97021

>  <SCORE.INTRA.DIHEDRAL.0>
18.1022

>  <SCORE.INTRA.POLAR>
0

>  <SCORE.INTRA.POLAR.0>
0

>  <SCORE.INTRA.REPUL>
0

>  <SCORE.INTRA.REPUL.0>
0

>  <SCORE.INTRA.VDW>
-0.320254

>  <SCORE.INTRA.VDW.0>
-2.81782

>  <SCORE.INTRA.norm>
0.0105303

>  <SCORE.RESTR>
0.306184

>  <SCORE.RESTR.CAVITY>
0.306184

>  <SCORE.RESTR.norm>
0.0117763

>  <SCORE.SYSTEM>
-4.06069

>  <SCORE.SYSTEM.CONST>
0

>  <SCORE.SYSTEM.DIHEDRAL>
0.748272

>  <SCORE.SYSTEM.POLAR>
-0.815317

>  <SCORE.SYSTEM.REPUL>
0.0108185

>  <SCORE.SYSTEM.VDW>
-1.71684

>  <SCORE.SYSTEM.norm>
-0.15618

>  <SCORE.heavy>
26

>  <SCORE.norm>
-0.813031

$$$$
S58.pdb
  rDOCK(R)          3D
libRbt.so/2013.1/901 2013/11/27
 28 30  0  0  0  0  0  0  0  0999 V2000
   22.8509   31.8579   26.9489 C   0  0  0  0  0  0
   23.3436   30.8424   27.7106 C   0  0  0  0  0  0
   23.7806   33.0084   27.1418 C   0  0  0  0  0  0
   23.6614   34.4060   26.6116 C   0  0  0  0  0  0
   25.4825   30.5206   28.9176 C   0  0  0  0  0  0
   26.4743   29.9933   28.0810 C   0  0  0  0  0  0
   27.5261   29.2789   28.6351 C   0  0  0  0  0  0
   27.5846   29.0959   30.0359 C   0  0  0  0  0  0
   26.5886   29.6272   30.8723 C   0  0  0  0  0  0
   25.5296   30.3419   30.3071 C   0  0  0  0  0  0
   22.6913   29.5063   27.8666 C   0  0  0  0  0  0
   21.8417   29.0192   26.8410 C   0  0  0  0  0  0
   21.3411   27.7053   26.9013 C   0  0  0  0  0  0
   21.6854   26.8801   27.9685 C   0  0  0  0  0  0
   22.4985   27.3642   28.9992 C   0  0  0  0  0  0
   23.0069   28.6837   28.9500 C   0  0  0  0  0  0
   24.4963   31.2697   28.3295 N   0  0  0  0  0  0
   24.7402   32.6228   27.9381 N   0  0  0  0  0  0
   30.0979   27.7806   29.4874 N   0  0  0  0  0  0
   28.4605   26.9977   31.4130 O   0  0  0  0  0  0
   29.5992   29.0170   31.7502 O   0  0  0  0  0  0
   21.2006   25.0993   27.9298 Br  0  0  0  0  0  0
   23.2689   35.2342   27.6117 F   0  0  0  0  0  0
   22.8036   34.4319   25.5796 F   0  0  0  0  0  0
   24.8701   34.7886   26.1848 F   0  0  0  0  0  0
   28.9709   28.1701   30.7755 S   0  0  0  0  0  0
   29.9391   28.1208   28.5849 H   0  0  0  0  0  0
   30.8860   27.2257   29.6722 H   0  0  0  0  0  0
  1  3  1  0  0  0
  2  1  2  0  0  0
  2 17  1  0  0  0
  3 18  2  0  0  0
  3  4  1  0  0  0
  4 23  1  0  0  0
  4 25  1  0  0  0
  5 17  1  0  0  0
  5  6  2  0  0  0
  7  6  1  0  0  0
  8  7  2  0  0  0
  9 10  2  0  0  0
  9  8  1  0  0  0
 10  5  1  0  0  0
 11  2  1  0  0  0
 12 11  1  0  0  0
 13 12  2  0  0  0
 14 15  2  0  0  0
 14 13  1  0  0  0
 15 16  1  0  0  0
 16 11  2  0  0  0
 17 18  1  0  0  0
 19 28  1  0  0  0
 20 26  2  0  0  0
 22 14  1  0  0  0
 24  4  1  0  0  0
 26  8  1  0  0  0
 26 19  1  0  0  0
 26 21  2  0  0  0
 27 19  1  0  0  0
M  END
>  <CHROM.0>
125.89298363,60.54370411,-171.43584250

>  <CHROM.1>
104.06234299,83.41600909,25.90668748,4.79536676,4.46543054,24.48527696,29.44137182
28.44612246,1.16187075,-0.42204345,-0.26033571

>  <FORMUL>
      S58    C16 H11 Br1 F3 N3 O2 S1

>  <HET>
 S58  A 701      28

>  <HETNAM>
     S58 1-PHENYLSULFONAMIDE-3-TRIFLUOROMETHYL-5-PARABROMOPHENYL
   2 S58 PYRAZOLE

>  <Name>
S58.pdb

>  <RI>
0

>  <Rbt.Current_Directory>
/home/malgorzata/Desktop/rDOCK_IFD/Wyniki/3_COX2

>  <Rbt.Executable>
rbdock ($Id: //depot/dev/client3/rdock/2013.1/src/exe/rbdock.cxx#4 $)

>  <Rbt.Library>
libRbt.so (2013.1, Build901 2013/11/27)

>  <Rbt.Parameter_File>
/home/malgorzata/Desktop/rDock_2013.1_src/data/scripts/soft_docking.prm

>  <Rbt.Receptor>
cavity.prm

>  <SCORE>
-17.8815

>  <SCORE.INTER>
-14.7382

>  <SCORE.INTER.CONST>
1

>  <SCORE.INTER.POLAR>
-2.45702

>  <SCORE.INTER.REPUL>
0

>  <SCORE.INTER.ROT>
5

>  <SCORE.INTER.VDW>
-16.7843

>  <SCORE.INTER.norm>
-0.566854

>  <SCORE.INTRA>
-0.394024

>  <SCORE.INTRA.DIHEDRAL>
-0.689967

>  <SCORE.INTRA.DIHEDRAL.0>
18.1022

>  <SCORE.INTRA.POLAR>
0

>  <SCORE.INTRA.POLAR.0>
0

>  <SCORE.INTRA.REPUL>
0

>  <SCORE.INTRA.REPUL.0>
0

>  <SCORE.INTRA.VDW>
-0.256031

>  <SCORE.INTRA.VDW.0>
-2.81782

>  <SCORE.INTRA.norm>
-0.0151548

>  <SCORE.RESTR>
0

>  <SCORE.RESTR.CAVITY>
0

>  <SCORE.RESTR.norm>
0

>  <SCORE.SYSTEM>
-2.74923

>  <SCORE.SYSTEM.CONST>
0

>  <SCORE.SYSTEM.DIHEDRAL>
1.14674

>  <SCORE.SYSTEM.POLAR>
-0.44491

>  <SCORE.SYSTEM.VDW>
-1.80991

>  <SCORE.SYSTEM.norm>
-0.10574

>  <SCORE.heavy>
26

>  <SCORE.norm>
-0.687749

$$$$
S58.pdb
  rDOCK(R)          3D
libRbt.so/2013.1/901 2013/11/27
 28 30  0  0  0  0  0  0  0  0999 V2000
   24.8115   30.7795   26.4931 C   0  0  0  0  0  0
   24.9632   29.7241   27.3402 C   0  0  0  0  0  0
   23.5103   30.5663   25.7955 C   0  0  0  0  0  0
   22.8975   31.3754   24.6917 C   0  0  0  0  0  0
   23.4328   27.9269   28.0904 C   0  0  0  0  0  0
   22.9451   28.3367   29.3378 C   0  0  0  0  0  0
   22.4430   27.3906   30.2189 C   0  0  0  0  0  0
   22.4270   26.0271   29.8450 C   0  0  0  0  0  0
   22.9160   25.6197   28.5925 C   0  0  0  0  0  0
   23.4244   26.5773   27.7116 C   0  0  0  0  0  0
   26.1627   29.4950   28.2025 C   0  0  0  0  0  0
   27.3381   30.2573   27.9820 C   0  0  0  0  0  0
   28.4209   30.1626   28.8759 C   0  0  0  0  0  0
   28.3356   29.3218   29.9823 C   0  0  0  0  0  0
   27.1910   28.5440   30.1892 C   0  0  0  0  0  0
   26.0964   28.6301   29.2968 C   0  0  0  0  0  0
   23.8628   28.9046   27.2310 N   0  0  0  0  0  0
   22.9747   29.4727   26.2655 N   0  0  0  0  0  0
   22.2078   25.2513   32.6195 N   0  0  0  0  0  0
   22.2812   23.4952   30.6414 O   0  0  0  0  0  0
   20.3268   24.7698   30.8509 O   0  0  0  0  0  0
   29.6687   29.3659   31.2585 Br  0  0  0  0  0  0
   22.9385   30.6644   23.5372 F   0  0  0  0  0  0
   23.5382   32.5491   24.5752 F   0  0  0  0  0  0
   21.6190   31.6053   25.0109 F   0  0  0  0  0  0
   21.7560   24.7772   30.9910 S   0  0  0  0  0  0
   21.5733   25.1308   33.3531 H   0  0  0  0  0  0
   23.0948   25.6334   32.7941 H   0  0  0  0  0  0
  1  3  1  0  0  0
  2  1  2  0  0  0
  2 17  1  0  0  0
  3 18  2  0  0  0
  3  4  1  0  0  0
  4 23  1  0  0  0
  4 25  1  0  0  0
  5 17  1  0  0  0
  5  6  2  0  0  0
  7  6  1  0  0  0
  8  7  2  0  0  0
  9 10  2  0  0  0
  9  8  1  0  0  0
 10  5  1  0  0  0
 11  2  1  0  0  0
 12 11  1  0  0  0
 13 12  2  0  0  0
 14 15  2  0  0  0
 14 13  1  0  0  0
 15 16  1  0  0  0
 16 11  2  0  0  0
 17 18  1  0  0  0
 19 28  1  0  0  0
 20 26  2  0  0  0
 22 14  1  0  0  0
 24  4  1  0  0  0
 26  8  1  0  0  0
 26 19  1  0  0  0
 26 21  2  0  0  0
 27 19  1  0  0  0
M  END
>  <CHROM.0>
133.37020850,112.00038380,-51.99860534

>  <CHROM.1>
108.98472970,68.54157968,-12.22430125,-36.95194784,141.17422469,24.77404184
28.52526107,28.76173259,0.00779909,-0.41794229,-0.83178617

>  <FORMUL>
      S58    C16 H11 Br1 F3 N3 O2 S1

>  <HET>
 S58  A 701      28

>  <HETNAM>
     S58 1-PHENYLSULFONAMIDE-3-TRIFLUOROMETHYL-5-PARABROMOPHENYL
   2 S58 PYRAZOLE

>  <Name>
S58.pdb

>  <RI>
0

>  <Rbt.Current_Directory>
/home/malgorzata/Desktop/rDOCK_IFD/Wyniki/3_COX2

>  <Rbt.Executable>
rbdock ($Id: //depot/dev/client3/rdock/2013.1/src/exe/rbdock.cxx#4 $)

>  <Rbt.Library>
libRbt.so (2013.1, Build901 2013/11/27)

>  <Rbt.Parameter_File>
/home/malgorzata/Desktop/rDock_2013.1_src/data/scripts/soft_docking.prm

>  <Rbt.Receptor>
cavity.prm

>  <SCORE>
-18.1804

>  <SCORE.INTER>
-13.3638

>  <SCORE.INTER.CONST>
1

>  <SCORE.INTER.POLAR>
-0.660733

>  <SCORE.INTER.REPUL>
0.527177

>  <SCORE.INTER.ROT>
5

>  <SCORE.INTER.VDW>
-24.1532

>  <SCORE.INTER.norm>
-0.513993

>  <SCORE.INTRA>
-0.393277

>  <SCORE.INTRA.DIHEDRAL>
-2.12123

>  <SCORE.INTRA.DIHEDRAL.0>
18.1022

>  <SCORE.INTRA.POLAR>
0

>  <SCORE.INTRA.POLAR.0>
0

>  <SCORE.INTRA.REPUL>
0

>  <SCORE.INTRA.REPUL.0>
0

>  <SCORE.INTRA.VDW>
0.0309681

>  <SCORE.INTRA.VDW.0>
-2.81782

>  <SCORE.INTRA.norm>
-0.0151261

>  <SCORE.RESTR>
0

>  <SCORE.RESTR.CAVITY>
0

>  <SCORE.RESTR.norm>
0

>  <SCORE.SYSTEM>
-4.42335

>  <SCORE.SYSTEM.CONST>
0

>  <SCORE.SYSTEM.DIHEDRAL>
1.08452

>  <SCORE.SYSTEM.POLAR>
-0.93488

>  <SCORE.SYSTEM.VDW>
-1.78702

>  <SCORE.SYSTEM.norm>
-0.170129

>  <SCORE.heavy>
26

>  <SCORE.norm>
-0.699248

$$$$
S58.pdb
  rDOCK(R)          3D
libRbt.so/2013.1/901 2013/11/27
 28 30  0  0  0  0  0  0  0  0999 V2000
   22.9971   28.3506   27.6893 C   0  0  0  0  0  0
   24.1571   29.0575   27.7846 C   0  0  0  0  0  0
   23.3788   26.9127   27.7996 C   0  0  0  0  0  0
   22.5062   25.7007   27.6652 C   0  0  0  0  0  0
   26.4694   28.4322   28.4150 C   0  0  0  0  0  0
   26.5937   29.1893   29.5868 C   0  0  0  0  0  0
   27.8533   29.4230   30.1182 C   0  0  0  0  0  0
   28.9933   28.8913   29.4725 C   0  0  0  0  0  0
   28.8648   28.1313   28.2979 C   0  0  0  0  0  0
   27.5935   27.9035   27.7655 C   0  0  0  0  0  0
   24.2557   30.5445   27.6655 C   0  0  0  0  0  0
   25.3310   31.2260   28.2902 C   0  0  0  0  0  0
   25.5236   32.6016   28.0642 C   0  0  0  0  0  0
   24.6588   33.2938   27.2208 C   0  0  0  0  0  0
   23.5780   32.6343   26.6254 C   0  0  0  0  0  0
   23.3736   31.2517   26.8459 C   0  0  0  0  0  0
   25.2007   28.1778   27.9620 N   0  0  0  0  0  0
   24.6703   26.8504   27.9779 N   0  0  0  0  0  0
   30.6314   30.7490   30.9602 N   0  0  0  0  0  0
   31.6175   29.1245   29.1188 O   0  0  0  0  0  0
   30.9179   28.1437   31.1279 O   0  0  0  0  0  0
   25.0441   35.0403   26.7637 Br  0  0  0  0  0  0
   21.3994   25.8562   28.4338 F   0  0  0  0  0  0
   23.1962   24.6006   28.0047 F   0  0  0  0  0  0
   22.1313   25.6034   26.3848 F   0  0  0  0  0  0
   30.6527   29.1812   30.1712 S   0  0  0  0  0  0
   29.9758   31.4204   30.6868 H   0  0  0  0  0  0
   31.2732   30.9506   31.6749 H   0  0  0  0  0  0
  1  3  1  0  0  0
  2  1  2  0  0  0
  2 17  1  0  0  0
  3 18  2  0  0  0
  3  4  1  0  0  0
  4 23  1  0  0  0
  4 25  1  0  0  0
  5 17  1  0  0  0
  5  6  2  0  0  0
  7  6  1  0  0  0
  8  7  2  0  0  0
  9 10  2  0  0  0
  9  8  1  0  0  0
 10  5  1  0  0  0
 11  2  1  0  0  0
 12 11  1  0  0  0
 13 12  2  0  0  0
 14 15  2  0  0  0
 14 13  1  0  0  0
 15 16  1  0  0  0
 16 11  2  0  0  0
 17 18  1  0  0  0
 19 28  1  0  0  0
 20 26  2  0  0  0
 22 14  1  0  0  0
 24  4  1  0  0  0
 26  8  1  0  0  0
 26 19  1  0  0  0
 26 21  2  0  0  0
 27 19  1  0  0  0
M  END
>  <CHROM.0>
16.81568145,161.55216327,-57.15357921

>  <CHROM.1>
-48.98697216,48.70284298,154.47790959,-31.76480489,-23.53456700,25.88946399
29.85292199,28.18026484,1.92418902,0.36450319,2.96535486

>  <FORMUL>
      S58    C16 H11 Br1 F3 N3 O2 S1

>  <HET>
 S58  A 701      28

>  <HETNAM>
     S58 1-PHENYLSULFONAMIDE-3-TRIFLUOROMETHYL-5-PARABROMOPHENYL
   2 S58 PYRAZOLE

>  <Name>
S58.pdb

>  <RI>
0

>  <Rbt.Current_Directory>
/home/malgorzata/Desktop/rDOCK_IFD/Wyniki/3_COX2

>  <Rbt.Executable>
rbdock ($Id: //depot/dev/client3/rdock/2013.1/src/exe/rbdock.cxx#4 $)

>  <Rbt.Library>
libRbt.so (2013.1, Build901 2013/11/27)

>  <Rbt.Parameter_File>
/home/malgorzata/Desktop/rDock_2013.1_src/data/scripts/soft_docking.prm

>  <Rbt.Receptor>
cavity.prm

>  <SCORE>
-22.9952

>  <SCORE.INTER>
-20.3553

>  <SCORE.INTER.CONST>
1

>  <SCORE.INTER.POLAR>
-1.82496

>  <SCORE.INTER.REPUL>
0

>  <SCORE.INTER.ROT>
5

>  <SCORE.INTER.VDW>
-24.5504

>  <SCORE.INTER.norm>
-0.782895

>  <SCORE.INTRA>
1.20822

>  <SCORE.INTRA.DIHEDRAL>
-2.96587

>  <SCORE.INTRA.DIHEDRAL.0>
18.1022

>  <SCORE.INTRA.POLAR>
0

>  <SCORE.INTRA.POLAR.0>
0

>  <SCORE.INTRA.REPUL>
0

>  <SCORE.INTRA.REPUL.0>
0

>  <SCORE.INTRA.VDW>
1.8014

>  <SCORE.INTRA.VDW.0>
-2.81782

>  <SCORE.INTRA.norm>
0.0464701

>  <SCORE.RESTR>
0.0474627

>  <SCORE.RESTR.CAVITY>
0.0474627

>  <SCORE.RESTR.norm>
0.00182549

>  <SCORE.SYSTEM>
-3.89565

>  <SCORE.SYSTEM.CONST>
0

>  <SCORE.SYSTEM.DIHEDRAL>
0.833471

>  <SCORE.SYSTEM.POLAR>
-0.82538

>  <SCORE.SYSTEM.VDW>
-1.50609

>  <SCORE.SYSTEM.norm>
-0.149833

>  <SCORE.heavy>
26

>  <SCORE.norm>
-0.884432

$$$$
S58.pdb
  rDOCK(R)          3D
libRbt.so/2013.1/901 2013/11/27
 28 30  0  0  0  0  0  0  0  0999 V2000
   24.8940   32.6179   29.2939 C   0  0  0  0  0  0
   26.0196   32.0348   28.7966 C   0  0  0  0  0  0
   24.5428   31.8547   30.5266 C   0  0  0  0  0  0
   23.3438   32.0111   31.4134 C   0  0  0  0  0  0
   27.5966   30.3567   29.7086 C   0  0  0  0  0  0
   28.7526   31.1454   29.6515 C   0  0  0  0  0  0
   29.9957   30.5459   29.7889 C   0  0  0  0  0  0
   30.0789   29.1486   29.9882 C   0  0  0  0  0  0
   28.9172   28.3606   30.0462 C   0  0  0  0  0  0
   27.6685   28.9702   29.9025 C   0  0  0  0  0  0
   26.6948   32.4420   27.5264 C   0  0  0  0  0  0
   26.6990   33.8075   27.1436 C   0  0  0  0  0  0
   27.4554   34.2290   26.0343 C   0  0  0  0  0  0
   28.2055   33.3033   25.3140 C   0  0  0  0  0  0
   28.1818   31.9498   25.6677 C   0  0  0  0  0  0
   27.4244   31.5140   26.7805 C   0  0  0  0  0  0
   26.3899   31.0022   29.6280 N   0  0  0  0  0  0
   25.4489   30.9317   30.7017 N   0  0  0  0  0  0
   31.7515   26.9596   29.1173 N   0  0  0  0  0  0
   31.8849   27.9846   31.5533 O   0  0  0  0  0  0
   32.7144   29.3045   29.8046 O   0  0  0  0  0  0
   29.3571   33.8971   23.9991 Br  0  0  0  0  0  0
   23.7249   32.5668   32.5907 F   0  0  0  0  0  0
   22.7509   30.8206   31.5949 F   0  0  0  0  0  0
   22.4865   32.8378   30.8043 F   0  0  0  0  0  0
   31.7081   28.3529   30.1841 S   0  0  0  0  0  0
   32.2110   26.1453   29.4019 H   0  0  0  0  0  0
   31.3141   26.9964   28.2395 H   0  0  0  0  0  0
  1  3  1  0  0  0
  2  1  2  0  0  0
  2 17  1  0  0  0
  3 18  2  0  0  0
  3  4  1  0  0  0
  4 23  1  0  0  0
  4 25  1  0  0  0
  5 17  1  0  0  0
  5  6  2  0  0  0
  7  6  1  0  0  0
  8  7  2  0  0  0
  9 10  2  0  0  0
  9  8  1  0  0  0
 10  5  1  0  0  0
 11  2  1  0  0  0
 12 11  1  0  0  0
 13 12  2  0  0  0
 14 15  2  0  0  0
 14 13  1  0  0  0
 15 16  1  0  0  0
 16 11  2  0  0  0
 17 18  1  0  0  0
 19 28  1  0  0  0
 20 26  2  0  0  0
 22 14  1  0  0  0
 24  4  1  0  0  0
 26  8  1  0  0  0
 26 19  1  0  0  0
 26 21  2  0  0  0
 27 19  1  0  0  0
M  END
>  <CHROM.0>
58.35327290,-81.62581710,-95.28607108

>  <CHROM.1>
-108.56181011,42.36354207,34.48923033,-131.66080999,-143.41930862,27.86680254
31.38059310,28.53833026,2.49436756,-0.42552692,2.19430905

>  <FORMUL>
      S58    C16 H11 Br1 F3 N3 O2 S1

>  <HET>
 S58  A 701      28

>  <HETNAM>
     S58 1-PHENYLSULFONAMIDE-3-TRIFLUOROMETHYL-5-PARABROMOPHENYL
   2 S58 PYRAZOLE

>  <Name>
S58.pdb

>  <RI>
0

>  <Rbt.Current_Directory>
/home/malgorzata/Desktop/rDOCK_IFD/Wyniki/3_COX2

>  <Rbt.Executable>
rbdock ($Id: //depot/dev/client3/rdock/2013.1/src/exe/rbdock.cxx#4 $)

>  <Rbt.Library>
libRbt.so (2013.1, Build901 2013/11/27)

>  <Rbt.Parameter_File>
/home/malgorzata/Desktop/rDock_2013.1_src/data/scripts/soft_docking.prm

>  <Rbt.Receptor>
cavity.prm

>  <SCORE>
-23.9435

>  <SCORE.INTER>
-21.4589

>  <SCORE.INTER.CONST>
1

>  <SCORE.INTER.POLAR>
-2.25165

>  <SCORE.INTER.REPUL>
0

>  <SCORE.INTER.ROT>
5

>  <SCORE.INTER.VDW>
-24.2032

>  <SCORE.INTER.norm>
-0.825341

>  <SCORE.INTRA>
-0.854918

>  <SCORE.INTRA.DIHEDRAL>
-4.1951

>  <SCORE.INTRA.DIHEDRAL.0>
18.1022

>  <SCORE.INTRA.POLAR>
0

>  <SCORE.INTRA.POLAR.0>
0

>  <SCORE.INTRA.REPUL>
0

>  <SCORE.INTRA.REPUL.0>
0

>  <SCORE.INTRA.VDW>
-0.015898

>  <SCORE.INTRA.VDW.0>
-2.81782

>  <SCORE.INTRA.norm>
-0.0328815

>  <SCORE.RESTR>
0.129005

>  <SCORE.RESTR.CAVITY>
0.129005

>  <SCORE.RESTR.norm>
0.00496173

>  <SCORE.SYSTEM>
-1.75872

>  <SCORE.SYSTEM.CONST>
0

>  <SCORE.SYSTEM.DIHEDRAL>
5.39732

>  <SCORE.SYSTEM.POLAR>
-0.806677

>  <SCORE.SYSTEM.VDW>
-1.71467

>  <SCORE.SYSTEM.norm>
-0.0676429

>  <SCORE.heavy>
26

>  <SCORE.norm>
-0.920903

$$$$
S58.pdb
  rDOCK(R)          3D
libRbt.so/2013.1/901 2013/11/27
 28 30  0  0  0  0  0  0  0  0999 V2000
   22.2884   28.4954   26.2571 C   0  0  0  0  0  0
   22.9746   28.0904   27.3614 C   0  0  0  0  0  0
   23.0112   29.6920   25.7367 C   0  0  0  0  0  0
   22.6345   30.5889   24.5956 C   0  0  0  0  0  0
   25.1762   28.7185   28.3065 C   0  0  0  0  0  0
   26.4148   28.7527   27.6533 C   0  0  0  0  0  0
   27.5802   28.6120   28.3919 C   0  0  0  0  0  0
   27.5025   28.4397   29.7931 C   0  0  0  0  0  0
   26.2585   28.4070   30.4452 C   0  0  0  0  0  0
   25.0883   28.5448   29.6947 C   0  0  0  0  0  0
   22.5687   26.9521   28.2414 C   0  0  0  0  0  0
   21.6223   27.1704   29.2747 C   0  0  0  0  0  0
   21.1172   26.0838   30.0127 C   0  0  0  0  0  0
   21.5444   24.7905   29.7238 C   0  0  0  0  0  0
   22.5005   24.5711   28.7261 C   0  0  0  0  0  0
   23.0162   25.6558   27.9781 C   0  0  0  0  0  0
   24.0563   28.9221   27.5425 N   0  0  0  0  0  0
   24.0492   29.9002   26.5000 N   0  0  0  0  0  0
   30.3857   28.6090   29.7135 N   0  0  0  0  0  0
   29.0909   26.9459   31.3134 O   0  0  0  0  0  0
   28.9790   29.2248   31.8442 O   0  0  0  0  0  0
   20.7205   23.3589   30.5482 Br  0  0  0  0  0  0
   21.8690   31.6084   25.0589 F   0  0  0  0  0  0
   21.9991   29.8814   23.6483 F   0  0  0  0  0  0
   23.7607   31.0952   24.0810 F   0  0  0  0  0  0
   29.0298   28.2678   30.7748 S   0  0  0  0  0  0
   30.8154   29.4864   29.7428 H   0  0  0  0  0  0
   30.7134   27.9212   29.0948 H   0  0  0  0  0  0
  1  3  1  0  0  0
  2  1  2  0  0  0
  2 17  1  0  0  0
  3 18  2  0  0  0
  3  4  1  0  0  0
  4 23  1  0  0  0
  4 25  1  0  0  0
  5 17  1  0  0  0
  5  6  2  0  0  0
  7  6  1  0  0  0
  8  7  2  0  0  0
  9 10  2  0  0  0
  9  8  1  0  0  0
 10  5  1  0  0  0
 11  2  1  0  0  0
 12 11  1  0  0  0
 13 12  2  0  0  0
 14 15  2  0  0  0
 14 13  1  0  0  0
 15 16  1  0  0  0
 16 11  2  0  0  0
 17 18  1  0  0  0
 19 28  1  0  0  0
 20 26  2  0  0  0
 22 14  1  0  0  0
 24  4  1  0  0  0
 26  8  1  0  0  0
 26 19  1  0  0  0
 26 21  2  0  0  0
 27 19  1  0  0  0
M  END
>  <CHROM.0>
119.30314592,76.34141400,-178.56214879

>  <CHROM.1>
90.28074285,121.40933458,-84.34329741,8.61353244,100.39837640,24.11043735
27.53845003,28.56107100,2.66645517,0.40124132,2.35952482

>  <FORMUL>
      S58    C16 H11 Br1 F3 N3 O2 S1

>  <HET>
 S58  A 701      28

>  <HETNAM>
     S58 1-PHENYLSULFONAMIDE-3-TRIFLUOROMETHYL-5-PARABROMOPHENYL
   2 S58 PYRAZOLE

>  <Name>
S58.pdb

>  <RI>
0

>  <Rbt.Current_Directory>
/home/malgorzata/Desktop/rDOCK_IFD/Wyniki/3_COX2

>  <Rbt.Executable>
rbdock ($Id: //depot/dev/client3/rdock/2013.1/src/exe/rbdock.cxx#4 $)

>  <Rbt.Library>
libRbt.so (2013.1, Build901 2013/11/27)

>  <Rbt.Parameter_File>
/home/malgorzata/Desktop/rDock_2013.1_src/data/scripts/soft_docking.prm

>  <Rbt.Receptor>
cavity.prm

>  <SCORE>
-28.1083

>  <SCORE.INTER>
-25.7746

>  <SCORE.INTER.CONST>
1

>  <SCORE.INTER.POLAR>
-2.54189

>  <SCORE.INTER.REPUL>
0

>  <SCORE.INTER.ROT>
5

>  <SCORE.INTER.VDW>
-27.5321

>  <SCORE.INTER.norm>
-0.991329

>  <SCORE.INTRA>
0.603256

>  <SCORE.INTRA.DIHEDRAL>
5.43332

>  <SCORE.INTRA.DIHEDRAL.0>
18.1022

>  <SCORE.INTRA.POLAR>
0

>  <SCORE.INTRA.POLAR.0>
0

>  <SCORE.INTRA.REPUL>
0

>  <SCORE.INTRA.REPUL.0>
0

>  <SCORE.INTRA.VDW>
-0.483409

>  <SCORE.INTRA.VDW.0>
-2.81782

>  <SCORE.INTRA.norm>
0.0232021

>  <SCORE.RESTR>
0.245081

>  <SCORE.RESTR.CAVITY>
0.245081

>  <SCORE.RESTR.norm>
0.00942621

>  <SCORE.SYSTEM>
-3.18209

>  <SCORE.SYSTEM.CONST>
0

>  <SCORE.SYSTEM.DIHEDRAL>
0.796975

>  <SCORE.SYSTEM.POLAR>
-0.477036

>  <SCORE.SYSTEM.VDW>
-1.95866

>  <SCORE.SYSTEM.norm>
-0.122388

>  <SCORE.heavy>
26

>  <SCORE.norm>
-1.08109

$$$$
S58.pdb
  rDOCK(R)          3D
libRbt.so/2013.1/901 2013/11/27
 28 30  0  0  0  0  0  0  0  0999 V2000
   22.6413   29.3787   26.1268 C   0  0  0  0  0  0
   23.4004   28.6513   26.9922 C   0  0  0  0  0  0
   23.2916   30.7178   26.0309 C   0  0  0  0  0  0
   22.8217   31.9347   25.2914 C   0  0  0  0  0  0
   25.6263   29.0258   28.0122 C   0  0  0  0  0  0
   26.4133   28.0887   27.3308 C   0  0  0  0  0  0
   27.6310   27.6997   27.8688 C   0  0  0  0  0  0
   28.0627   28.2565   29.0946 C   0  0  0  0  0  0
   27.2713   29.1971   29.7749 C   0  0  0  0  0  0
   26.0437   29.5812   29.2297 C   0  0  0  0  0  0
   23.0838   27.2583   27.4329 C   0  0  0  0  0  0
   23.4447   26.8392   28.7387 C   0  0  0  0  0  0
   23.0225   25.5867   29.2218 C   0  0  0  0  0  0
   22.2441   24.7592   28.4170 C   0  0  0  0  0  0
   21.9100   25.1534   27.1167 C   0  0  0  0  0  0
   22.3295   26.4099   26.6197 C   0  0  0  0  0  0
   24.4599   29.4235   27.4114 N   0  0  0  0  0  0
   24.3614   30.7014   26.7785 N   0  0  0  0  0  0
   30.5244   29.2264   30.2551 N   0  0  0  0  0  0
   30.3896   26.9980   28.8346 O   0  0  0  0  0  0
   29.4116   26.9551   30.9628 O   0  0  0  0  0  0
   21.5195   23.2198   29.1333 Br  0  0  0  0  0  0
   23.4120   33.0366   25.8181 F   0  0  0  0  0  0
   21.4830   32.0143   25.3459 F   0  0  0  0  0  0
   23.2005   31.8119   24.0144 F   0  0  0  0  0  0
   29.6687   27.7620   29.8031 S   0  0  0  0  0  0
   30.4086   29.5985   31.1515 H   0  0  0  0  0  0
   31.1190   29.6691   29.6119 H   0  0  0  0  0  0
  1  3  1  0  0  0
  2  1  2  0  0  0
  2 17  1  0  0  0
  3 18  2  0  0  0
  3  4  1  0  0  0
  4 23  1  0  0  0
  4 25  1  0  0  0
  5 17  1  0  0  0
  5  6  2  0  0  0
  7  6  1  0  0  0
  8  7  2  0  0  0
  9 10  2  0  0  0
  9  8  1  0  0  0
 10  5  1  0  0  0
 11  2  1  0  0  0
 12 11  1  0  0  0
 13 12  2  0  0  0
 14 15  2  0  0  0
 14 13  1  0  0  0
 15 16  1  0  0  0
 16 11  2  0  0  0
 17 18  1  0  0  0
 19 28  1  0  0  0
 20 26  2  0  0  0
 22 14  1  0  0  0
 24  4  1  0  0  0
 26  8  1  0  0  0
 26 19  1  0  0  0
 26 21  2  0  0  0
 27 19  1  0  0  0
M  END
>  <CHROM.0>
26.52497202,-37.14127545,-54.58373712

>  <CHROM.1>
158.72231555,56.94495932,-147.64826822,131.70033138,89.89017313,24.63276251
27.78183502,27.99133414,2.55987123,0.34062689,2.69102336

>  <FORMUL>
      S58    C16 H11 Br1 F3 N3 O2 S1

>  <HET>
 S58  A 701      28

>  <HETNAM>
     S58 1-PHENYLSULFONAMIDE-3-TRIFLUOROMETHYL-5-PARABROMOPHENYL
   2 S58 PYRAZOLE

>  <Name>
S58.pdb

>  <RI>
0

>  <Rbt.Current_Directory>
/home/malgorzata/Desktop/rDOCK_IFD/Wyniki/3_COX2

>  <Rbt.Executable>
rbdock ($Id: //depot/dev/client3/rdock/2013.1/src/exe/rbdock.cxx#4 $)

>  <Rbt.Library>
libRbt.so (2013.1, Build901 2013/11/27)

>  <Rbt.Parameter_File>
/home/malgorzata/Desktop/rDock_2013.1_src/data/scripts/soft_docking.prm

>  <Rbt.Receptor>
cavity.prm

>  <SCORE>
-24.5543

>  <SCORE.INTER>
-20.6405

>  <SCORE.INTER.CONST>
1

>  <SCORE.INTER.POLAR>
-1.75672

>  <SCORE.INTER.REPUL>
0.110496

>  <SCORE.INTER.ROT>
5

>  <SCORE.INTER.VDW>
-25.6201

>  <SCORE.INTER.norm>
-0.793865

>  <SCORE.INTRA>
-0.579659

>  <SCORE.INTRA.DIHEDRAL>
-1.83366

>  <SCORE.INTRA.DIHEDRAL.0>
18.1022

>  <SCORE.INTRA.POLAR>
0

>  <SCORE.INTRA.POLAR.0>
0

>  <SCORE.INTRA.REPUL>
0

>  <SCORE.INTRA.REPUL.0>
0

>  <SCORE.INTRA.VDW>
-0.212928

>  <SCORE.INTRA.VDW.0>
-2.81782

>  <SCORE.INTRA.norm>
-0.0222946

>  <SCORE.RESTR>
0.1641

>  <SCORE.RESTR.CAVITY>
0.1641

>  <SCORE.RESTR.norm>
0.00631153

>  <SCORE.SYSTEM>
-3.49823

>  <SCORE.SYSTEM.CONST>
0

>  <SCORE.SYSTEM.DIHEDRAL>
0.891385

>  <SCORE.SYSTEM.POLAR>
-0.818206

>  <SCORE.SYSTEM.VDW>
-1.16203

>  <SCORE.SYSTEM.norm>
-0.134547

>  <SCORE.heavy>
26

>  <SCORE.norm>
-0.944396

$$$$
S58.pdb
  rDOCK(R)          3D
libRbt.so/2013.1/901 2013/11/27
 28 30  0  0  0  0  0  0  0  0999 V2000
   25.4075   31.2675   29.5068 C   0  0  0  0  0  0
   26.5470   30.8052   28.9219 C   0  0  0  0  0  0
   25.1713   30.3990   30.6963 C   0  0  0  0  0  0
   24.0079   30.4051   31.6424 C   0  0  0  0  0  0
   28.2822   29.1924   29.6449 C   0  0  0  0  0  0
   28.5229   28.1805   28.7068 C   0  0  0  0  0  0
   29.7909   27.6268   28.6100 C   0  0  0  0  0  0
   30.8231   28.0934   29.4561 C   0  0  0  0  0  0
   30.5784   29.1094   30.3952 C   0  0  0  0  0  0
   29.2979   29.6596   30.4906 C   0  0  0  0  0  0
   27.1297   31.3464   27.6559 C   0  0  0  0  0  0
   27.0237   32.7321   27.3740 C   0  0  0  0  0  0
   27.6944   33.2821   26.2658 C   0  0  0  0  0  0
   28.4681   32.4638   25.4471 C   0  0  0  0  0  0
   28.5524   31.0906   25.7018 C   0  0  0  0  0  0
   27.8818   30.5261   26.8124 C   0  0  0  0  0  0
   27.0298   29.7497   29.6616 N   0  0  0  0  0  0
   26.1487   29.5368   30.7670 N   0  0  0  0  0  0
   33.4738   28.4880   28.3766 N   0  0  0  0  0  0
   32.4087   26.0904   28.7215 O   0  0  0  0  0  0
   33.0300   27.2587   30.6546 O   0  0  0  0  0  0
   29.5109   33.2273   24.1289 Br  0  0  0  0  0  0
   24.2692   29.5732   32.6815 F   0  0  0  0  0  0
   22.8881   30.0514   30.9924 F   0  0  0  0  0  0
   23.8660   31.6496   32.1120 F   0  0  0  0  0  0
   32.4971   27.3816   29.3268 S   0  0  0  0  0  0
   33.6531   28.2912   27.4361 H   0  0  0  0  0  0
   33.8367   29.3026   28.7864 H   0  0  0  0  0  0
  1  3  1  0  0  0
  2  1  2  0  0  0
  2 17  1  0  0  0
  3 18  2  0  0  0
  3  4  1  0  0  0
  4 23  1  0  0  0
  4 25  1  0  0  0
  5 17  1  0  0  0
  5  6  2  0  0  0
  7  6  1  0  0  0
  8  7  2  0  0  0
  9 10  2  0  0  0
  9  8  1  0  0  0
 10  5  1  0  0  0
 11  2  1  0  0  0
 12 11  1  0  0  0
 13 12  2  0  0  0
 14 15  2  0  0  0
 14 13  1  0  0  0
 15 16  1  0  0  0
 16 11  2  0  0  0
 17 18  1  0  0  0
 19 28  1  0  0  0
 20 26  2  0  0  0
 22 14  1  0  0  0
 24  4  1  0  0  0
 26  8  1  0  0  0
 26 19  1  0  0  0
 26 21  2  0  0  0
 27 19  1  0  0  0
M  END
>  <CHROM.0>
12.99056319,-86.09063983,-62.13715836

>  <CHROM.1>
-172.22290993,-87.29157502,34.81576264,99.69024414,-101.48905162,28.41908896
30.30443389,28.43159094,2.57351123,-0.42244282,2.23887006

>  <FORMUL>
      S58    C16 H11 Br1 F3 N3 O2 S1

>  <HET>
 S58  A 701      28

>  <HETNAM>
     S58 1-PHENYLSULFONAMIDE-3-TRIFLUOROMETHYL-5-PARABROMOPHENYL
   2 S58 PYRAZOLE

>  <Name>
S58.pdb

>  <RI>
0

>  <Rbt.Current_Directory>
/home/malgorzata/Desktop/rDOCK_IFD/Wyniki/3_COX2

>  <Rbt.Executable>
rbdock ($Id: //depot/dev/client3/rdock/2013.1/src/exe/rbdock.cxx#4 $)

>  <Rbt.Library>
libRbt.so (2013.1, Build901 2013/11/27)

>  <Rbt.Parameter_File>
/home/malgorzata/Desktop/rDock_2013.1_src/data/scripts/soft_docking.prm

>  <Rbt.Receptor>
cavity.prm

>  <SCORE>
-28.8808

>  <SCORE.INTER>
-26.0128

>  <SCORE.INTER.CONST>
1

>  <SCORE.INTER.POLAR>
-2.17115

>  <SCORE.INTER.REPUL>
0

>  <SCORE.INTER.ROT>
5

>  <SCORE.INTER.VDW>
-29.0309

>  <SCORE.INTER.norm>
-1.00049

>  <SCORE.INTRA>
-0.0851324

>  <SCORE.INTRA.DIHEDRAL>
0.451163

>  <SCORE.INTRA.DIHEDRAL.0>
18.1022

>  <SCORE.INTRA.POLAR>
0

>  <SCORE.INTRA.POLAR.0>
0

>  <SCORE.INTRA.REPUL>
0

>  <SCORE.INTRA.REPUL.0>
0

>  <SCORE.INTRA.VDW>
-0.175365

>  <SCORE.INTRA.VDW.0>
-2.81782

>  <SCORE.INTRA.norm>
-0.00327432

>  <SCORE.RESTR>
1.08004

>  <SCORE.RESTR.CAVITY>
1.08004

>  <SCORE.RESTR.norm>
0.0415399

>  <SCORE.SYSTEM>
-3.86287

>  <SCORE.SYSTEM.CONST>
0

>  <SCORE.SYSTEM.DIHEDRAL>
0.82495

>  <SCORE.SYSTEM.POLAR>
-0.837284

>  <SCORE.SYSTEM.VDW>
-1.42858

>  <SCORE.SYSTEM.norm>
-0.148572

>  <SCORE.heavy>
26

>  <SCORE.norm>
-1.1108

$$$$
