S58.pdb
  rDOCK(R)          3D
libRbt.so/2013.1/901 2013/11/27
 28 30  0  0  0  0  0  0  0  0999 V2000
   24.9140   31.9091   27.3385 C   0  0  0  0  0  0
   25.0097   30.5759   27.5985 C   0  0  0  0  0  0
   23.7386   32.0709   26.4342 C   0  0  0  0  0  0
   23.2382   33.3159   25.7649 C   0  0  0  0  0  0
   23.5018   28.6585   27.1681 C   0  0  0  0  0  0
   22.8559   28.0240   26.0995 C   0  0  0  0  0  0
   22.4002   26.7231   26.2525 C   0  0  0  0  0  0
   22.5968   26.0544   27.4827 C   0  0  0  0  0  0
   23.2462   26.6935   28.5522 C   0  0  0  0  0  0
   23.6987   28.0055   28.3928 C   0  0  0  0  0  0
   26.0884   29.9480   28.4213 C   0  0  0  0  0  0
   26.6091   28.6840   28.0443 C   0  0  0  0  0  0
   27.7238   28.1489   28.7162 C   0  0  0  0  0  0
   28.3199   28.8652   29.7507 C   0  0  0  0  0  0
   27.7927   30.0989   30.1479 C   0  0  0  0  0  0
   26.6718   30.6466   29.4805 C   0  0  0  0  0  0
   23.9874   29.9217   26.9492 N   0  0  0  0  0  0
   23.2102   30.8926   26.2443 N   0  0  0  0  0  0
   22.7293   23.3758   26.4079 N   0  0  0  0  0  0
   20.5860   24.3228   27.6374 O   0  0  0  0  0  0
   22.4572   23.8717   28.9727 O   0  0  0  0  0  0
   29.9031   28.2565   30.4792 Br  0  0  0  0  0  0
   24.2546   34.2078   25.6570 F   0  0  0  0  0  0
   22.2043   33.8221   26.4551 F   0  0  0  0  0  0
   22.8236   32.9847   24.5369 F   0  0  0  0  0  0
   22.0138   24.3388   27.6892 S   0  0  0  0  0  0
   22.2409   22.6101   26.0466 H   0  0  0  0  0  0
   23.6150   23.6061   26.0534 H   0  0  0  0  0  0
  1  3  1  0  0  0
  2  1  2  0  0  0
  2 17  1  0  0  0
  3 18  2  0  0  0
  3  4  1  0  0  0
  4 23  1  0  0  0
  4 25  1  0  0  0
  5 17  1  0  0  0
  5  6  2  0  0  0
  7  6  1  0  0  0
  8  7  2  0  0  0
  9 10  2  0  0  0
  9  8  1  0  0  0
 10  5  1  0  0  0
 11  2  1  0  0  0
 12 11  1  0  0  0
 13 12  2  0  0  0
 14 15  2  0  0  0
 14 13  1  0  0  0
 15 16  1  0  0  0
 16 11  2  0  0  0
 17 18  1  0  0  0
 19 28  1  0  0  0
 20 26  2  0  0  0
 22 14  1  0  0  0
 24  4  1  0  0  0
 26  8  1  0  0  0
 26 19  1  0  0  0
 26 21  2  0  0  0
 27 19  1  0  0  0
M  END
>  <CHROM.0>
73.95540463,21.52867566,171.72599704

>  <CHROM.1>
23.29840583,-155.47800886,-142.45737313,55.29623314,-148.35928061,24.96111091
28.77662497,27.92254855,0.11021766,-0.47173563,-0.25952224

>  <FORMUL>
      S58    C16 H11 Br1 F3 N3 O2 S1

>  <HET>
 S58  A 701      28

>  <HETNAM>
     S58 1-PHENYLSULFONAMIDE-3-TRIFLUOROMETHYL-5-PARABROMOPHENYL
   2 S58 PYRAZOLE

>  <Name>
S58.pdb

>  <RI>
0

>  <Rbt.Current_Directory>
/home/malgorzata/Desktop/rDOCK_IFD/Wyniki/3_COX2

>  <Rbt.Executable>
rbdock ($Id: //depot/dev/client3/rdock/2013.1/src/exe/rbdock.cxx#4 $)

>  <Rbt.Library>
libRbt.so (2013.1, Build901 2013/11/27)

>  <Rbt.Parameter_File>
/home/malgorzata/Desktop/rDock_2013.1_src/data/scripts/soft_docking.prm

>  <Rbt.Receptor>
cavity.prm

>  <SCORE>
-23.77

>  <SCORE.INTER>
-21.3885

>  <SCORE.INTER.CONST>
1

>  <SCORE.INTER.POLAR>
-1.46761

>  <SCORE.INTER.REPUL>
0

>  <SCORE.INTER.ROT>
5

>  <SCORE.INTER.VDW>
-26.7986

>  <SCORE.INTER.norm>
-0.822635

>  <SCORE.INTRA>
-0.930483

>  <SCORE.INTRA.DIHEDRAL>
-7.26961

>  <SCORE.INTRA.DIHEDRAL.0>
18.1022

>  <SCORE.INTRA.POLAR>
0

>  <SCORE.INTRA.POLAR.0>
0

>  <SCORE.INTRA.REPUL>
0

>  <SCORE.INTRA.REPUL.0>
0

>  <SCORE.INTRA.VDW>
0.523438

>  <SCORE.INTRA.VDW.0>
-2.81782

>  <SCORE.INTRA.norm>
-0.0357878

>  <SCORE.RESTR>
0.389043

>  <SCORE.RESTR.CAVITY>
0.389043

>  <SCORE.RESTR.norm>
0.0149632

>  <SCORE.SYSTEM>
-1.84001

>  <SCORE.SYSTEM.CONST>
0

>  <SCORE.SYSTEM.DIHEDRAL>
1.17256

>  <SCORE.SYSTEM.POLAR>
-0.230418

>  <SCORE.SYSTEM.VDW>
-1.64287

>  <SCORE.SYSTEM.norm>
-0.0707695

>  <SCORE.heavy>
26

>  <SCORE.norm>
-0.914229

$$$$
S58.pdb
  rDOCK(R)          3D
libRbt.so/2013.1/901 2013/11/27
 28 30  0  0  0  0  0  0  0  0999 V2000
   22.3221   28.8456   27.0729 C   0  0  0  0  0  0
   23.0921   28.4199   28.1123 C   0  0  0  0  0  0
   23.1212   29.8883   26.3661 C   0  0  0  0  0  0
   22.7160   30.7525   25.2096 C   0  0  0  0  0  0
   25.4664   28.7851   28.7160 C   0  0  0  0  0  0
   26.6131   28.6727   27.9197 C   0  0  0  0  0  0
   27.8379   28.4178   28.5185 C   0  0  0  0  0  0
   27.9127   28.2787   29.9236 C   0  0  0  0  0  0
   26.7606   28.3932   30.7195 C   0  0  0  0  0  0
   25.5294   28.6455   30.1094 C   0  0  0  0  0  0
   22.6610   27.4129   29.1297 C   0  0  0  0  0  0
   23.1899   26.0980   29.0795 C   0  0  0  0  0  0
   22.9130   25.1841   30.1131 C   0  0  0  0  0  0
   22.1218   25.5739   31.1904 C   0  0  0  0  0  0
   21.5719   26.8598   31.2312 C   0  0  0  0  0  0
   21.8424   27.7871   30.1974 C   0  0  0  0  0  0
   24.2901   29.0970   28.0847 N   0  0  0  0  0  0
   24.2722   29.9947   26.9723 N   0  0  0  0  0  0
   30.7571   28.0357   29.4782 N   0  0  0  0  0  0
   29.4788   26.6775   31.3552 O   0  0  0  0  0  0
   29.7379   28.9789   31.7075 O   0  0  0  0  0  0
   21.9419   24.4430   32.6383 Br  0  0  0  0  0  0
   23.3035   31.9692   25.3302 F   0  0  0  0  0  0
   21.3783   30.8498   25.1582 F   0  0  0  0  0  0
   23.1553   30.1713   24.0878 F   0  0  0  0  0  0
   29.5207   27.9575   30.7217 S   0  0  0  0  0  0
   31.6248   28.4369   29.6818 H   0  0  0  0  0  0
   30.5796   27.6759   28.5825 H   0  0  0  0  0  0
  1  3  1  0  0  0
  2  1  2  0  0  0
  2 17  1  0  0  0
  3 18  2  0  0  0
  3  4  1  0  0  0
  4 23  1  0  0  0
  4 25  1  0  0  0
  5 17  1  0  0  0
  5  6  2  0  0  0
  7  6  1  0  0  0
  8  7  2  0  0  0
  9 10  2  0  0  0
  9  8  1  0  0  0
 10  5  1  0  0  0
 11  2  1  0  0  0
 12 11  1  0  0  0
 13 12  2  0  0  0
 14 15  2  0  0  0
 14 13  1  0  0  0
 15 16  1  0  0  0
 16 11  2  0  0  0
 17 18  1  0  0  0
 19 28  1  0  0  0
 20 26  2  0  0  0
 22 14  1  0  0  0
 24  4  1  0  0  0
 26  8  1  0  0  0
 26 19  1  0  0  0
 26 21  2  0  0  0
 27 19  1  0  0  0
M  END
>  <CHROM.0>
-45.20424247,69.12687964,-56.19165255

>  <CHROM.1>
145.81936079,124.99123985,105.71694287,5.28899374,141.91155945,24.56570881
27.82229548,29.34942430,1.56494052,-0.18797164,-0.88540795

>  <FORMUL>
      S58    C16 H11 Br1 F3 N3 O2 S1

>  <HET>
 S58  A 701      28

>  <HETNAM>
     S58 1-PHENYLSULFONAMIDE-3-TRIFLUOROMETHYL-5-PARABROMOPHENYL
   2 S58 PYRAZOLE

>  <Name>
S58.pdb

>  <RI>
0

>  <Rbt.Current_Directory>
/home/malgorzata/Desktop/rDOCK_IFD/Wyniki/3_COX2

>  <Rbt.Executable>
rbdock ($Id: //depot/dev/client3/rdock/2013.1/src/exe/rbdock.cxx#4 $)

>  <Rbt.Library>
libRbt.so (2013.1, Build901 2013/11/27)

>  <Rbt.Parameter_File>
/home/malgorzata/Desktop/rDock_2013.1_src/data/scripts/soft_docking.prm

>  <Rbt.Receptor>
cavity.prm

>  <SCORE>
-22.8012

>  <SCORE.INTER>
-18.4633

>  <SCORE.INTER.CONST>
1

>  <SCORE.INTER.POLAR>
-2.39933

>  <SCORE.INTER.REPUL>
0

>  <SCORE.INTER.ROT>
5

>  <SCORE.INTER.VDW>
-20.7056

>  <SCORE.INTER.norm>
-0.710126

>  <SCORE.INTRA>
0.222643

>  <SCORE.INTRA.DIHEDRAL>
4.02653

>  <SCORE.INTRA.DIHEDRAL.0>
18.1022

>  <SCORE.INTRA.POLAR>
0

>  <SCORE.INTRA.POLAR.0>
0

>  <SCORE.INTRA.REPUL>
0

>  <SCORE.INTRA.REPUL.0>
0

>  <SCORE.INTRA.VDW>
-0.582663

>  <SCORE.INTRA.VDW.0>
-2.81782

>  <SCORE.INTRA.norm>
0.00856319

>  <SCORE.RESTR>
0.0351335

>  <SCORE.RESTR.CAVITY>
0.0351335

>  <SCORE.RESTR.norm>
0.00135129

>  <SCORE.SYSTEM>
-4.59572

>  <SCORE.SYSTEM.CONST>
0

>  <SCORE.SYSTEM.DIHEDRAL>
0.881356

>  <SCORE.SYSTEM.POLAR>
-0.992715

>  <SCORE.SYSTEM.VDW>
-1.66117

>  <SCORE.SYSTEM.norm>
-0.176758

>  <SCORE.heavy>
26

>  <SCORE.norm>
-0.87697

$$$$
S58.pdb
  rDOCK(R)          3D
libRbt.so/2013.1/901 2013/11/27
 28 30  0  0  0  0  0  0  0  0999 V2000
   22.3727   28.2078   26.2863 C   0  0  0  0  0  0
   23.2194   28.0475   27.3407 C   0  0  0  0  0  0
   22.9252   29.3344   25.4796 C   0  0  0  0  0  0
   22.3394   29.9900   24.2649 C   0  0  0  0  0  0
   25.4600   28.9654   27.8624 C   0  0  0  0  0  0
   25.6757   29.9461   28.8389 C   0  0  0  0  0  0
   26.8685   29.9542   29.5465 C   0  0  0  0  0  0
   27.8481   28.9713   29.2754 C   0  0  0  0  0  0
   27.6279   27.9883   28.2961 C   0  0  0  0  0  0
   26.4261   27.9886   27.5838 C   0  0  0  0  0  0
   23.0193   27.0612   28.4462 C   0  0  0  0  0  0
   23.5096   27.3564   29.7437 C   0  0  0  0  0  0
   23.2001   26.5120   30.8261 C   0  0  0  0  0  0
   22.4060   25.3866   30.6230 C   0  0  0  0  0  0
   21.9442   25.0728   29.3400 C   0  0  0  0  0  0
   22.2497   25.9136   28.2439 C   0  0  0  0  0  0
   24.2424   28.9620   27.2325 N   0  0  0  0  0  0
   24.0276   29.7372   26.0508 N   0  0  0  0  0  0
   30.5333   30.0326   29.3805 N   0  0  0  0  0  0
   29.9066   27.6260   30.2847 O   0  0  0  0  0  0
   29.1424   29.4555   31.5324 O   0  0  0  0  0  0
   21.8310   24.4088   32.0794 Br  0  0  0  0  0  0
   23.3175   30.6476   23.5933 F   0  0  0  0  0  0
   21.3438   30.8147   24.6258 F   0  0  0  0  0  0
   21.8464   29.0288   23.4760 F   0  0  0  0  0  0
   29.4139   28.9651   30.2103 S   0  0  0  0  0  0
   30.2036   30.6343   28.6845 H   0  0  0  0  0  0
   31.4861   30.0278   29.6157 H   0  0  0  0  0  0
  1  3  1  0  0  0
  2  1  2  0  0  0
  2 17  1  0  0  0
  3 18  2  0  0  0
  3  4  1  0  0  0
  4 23  1  0  0  0
  4 25  1  0  0  0
  5 17  1  0  0  0
  5  6  2  0  0  0
  7  6  1  0  0  0
  8  7  2  0  0  0
  9 10  2  0  0  0
  9  8  1  0  0  0
 10  5  1  0  0  0
 11  2  1  0  0  0
 12 11  1  0  0  0
 13 12  2  0  0  0
 14 15  2  0  0  0
 14 13  1  0  0  0
 15 16  1  0  0  0
 16 11  2  0  0  0
 17 18  1  0  0  0
 19 28  1  0  0  0
 20 26  2  0  0  0
 22 14  1  0  0  0
 24  4  1  0  0  0
 26  8  1  0  0  0
 26 19  1  0  0  0
 26 21  2  0  0  0
 27 19  1  0  0  0
M  END
>  <CHROM.0>
16.20465072,-109.70975436,61.72234124

>  <CHROM.1>
-160.26366378,-110.05651699,-149.80443745,-87.11229299,12.73078644,24.49935780
27.85846229,28.65995750,2.33107561,0.36477111,2.17749277

>  <FORMUL>
      S58    C16 H11 Br1 F3 N3 O2 S1

>  <HET>
 S58  A 701      28

>  <HETNAM>
     S58 1-PHENYLSULFONAMIDE-3-TRIFLUOROMETHYL-5-PARABROMOPHENYL
   2 S58 PYRAZOLE

>  <Name>
S58.pdb

>  <RI>
0

>  <Rbt.Current_Directory>
/home/malgorzata/Desktop/rDOCK_IFD/Wyniki/3_COX2

>  <Rbt.Executable>
rbdock ($Id: //depot/dev/client3/rdock/2013.1/src/exe/rbdock.cxx#4 $)

>  <Rbt.Library>
libRbt.so (2013.1, Build901 2013/11/27)

>  <Rbt.Parameter_File>
/home/malgorzata/Desktop/rDock_2013.1_src/data/scripts/soft_docking.prm

>  <Rbt.Receptor>
cavity.prm

>  <SCORE>
-20.2967

>  <SCORE.INTER>
-17.9371

>  <SCORE.INTER.CONST>
1

>  <SCORE.INTER.POLAR>
-1.29202

>  <SCORE.INTER.REPUL>
0.586165

>  <SCORE.INTER.ROT>
5

>  <SCORE.INTER.VDW>
-26.8751

>  <SCORE.INTER.norm>
-0.68989

>  <SCORE.INTRA>
-0.401214

>  <SCORE.INTRA.DIHEDRAL>
-0.464817

>  <SCORE.INTRA.DIHEDRAL.0>
18.1022

>  <SCORE.INTRA.POLAR>
0

>  <SCORE.INTRA.POLAR.0>
0

>  <SCORE.INTRA.REPUL>
0

>  <SCORE.INTRA.REPUL.0>
0

>  <SCORE.INTRA.VDW>
-0.308251

>  <SCORE.INTRA.VDW.0>
-2.81782

>  <SCORE.INTRA.norm>
-0.0154313

>  <SCORE.RESTR>
0.0129045

>  <SCORE.RESTR.CAVITY>
0.0129045

>  <SCORE.RESTR.norm>
0.000496329

>  <SCORE.SYSTEM>
-1.97129

>  <SCORE.SYSTEM.CONST>
0

>  <SCORE.SYSTEM.DIHEDRAL>
0.803913

>  <SCORE.SYSTEM.POLAR>
-0.20604

>  <SCORE.SYSTEM.VDW>
-1.67271

>  <SCORE.SYSTEM.norm>
-0.0758188

>  <SCORE.heavy>
26

>  <SCORE.norm>
-0.780644

$$$$
S58.pdb
  rDOCK(R)          3D
libRbt.so/2013.1/901 2013/11/27
 28 30  0  0  0  0  0  0  0  0999 V2000
   25.8465   30.2324   29.8483 C   0  0  0  0  0  0
   24.6818   29.6065   29.5226 C   0  0  0  0  0  0
   26.3305   29.5805   31.0997 C   0  0  0  0  0  0
   27.5167   29.9408   31.9433 C   0  0  0  0  0  0
   23.5730   27.5574   30.3632 C   0  0  0  0  0  0
   23.3455   27.0209   29.0896 C   0  0  0  0  0  0
   22.5338   25.9045   28.9540 C   0  0  0  0  0  0
   21.9506   25.3215   30.1026 C   0  0  0  0  0  0
   22.1819   25.8616   31.3788 C   0  0  0  0  0  0
   22.9969   26.9889   31.5077 C   0  0  0  0  0  0
   23.8148   29.9792   28.3631 C   0  0  0  0  0  0
   24.4089   30.2462   27.1034 C   0  0  0  0  0  0
   23.6012   30.4499   25.9692 C   0  0  0  0  0  0
   22.2152   30.3841   26.0836 C   0  0  0  0  0  0
   21.6217   30.1513   27.3291 C   0  0  0  0  0  0
   22.4234   29.9458   28.4767 C   0  0  0  0  0  0
   24.4300   28.6237   30.4528 N   0  0  0  0  0  0
   25.4893   28.6328   31.4126 N   0  0  0  0  0  0
   21.0518   22.9080   31.4121 N   0  0  0  0  0  0
   21.3043   23.1049   28.7854 O   0  0  0  0  0  0
   19.5374   24.2877   29.7686 O   0  0  0  0  0  0
   21.1766   30.4395   24.5584 Br  0  0  0  0  0  0
   27.1686   29.8903   33.2534 F   0  0  0  0  0  0
   27.9723   31.1549   31.5968 F   0  0  0  0  0  0
   28.4736   29.0340   31.7166 F   0  0  0  0  0  0
   20.8932   23.8450   29.9363 S   0  0  0  0  0  0
   21.3045   21.9651   31.3628 H   0  0  0  0  0  0
   20.8903   23.3290   32.2838 H   0  0  0  0  0  0
  1  3  1  0  0  0
  2  1  2  0  0  0
  2 17  1  0  0  0
  3 18  2  0  0  0
  3  4  1  0  0  0
  4 23  1  0  0  0
  4 25  1  0  0  0
  5 17  1  0  0  0
  5  6  2  0  0  0
  7  6  1  0  0  0
  8  7  2  0  0  0
  9 10  2  0  0  0
  9  8  1  0  0  0
 10  5  1  0  0  0
 11  2  1  0  0  0
 12 11  1  0  0  0
 13 12  2  0  0  0
 14 15  2  0  0  0
 14 13  1  0  0  0
 15 16  1  0  0  0
 16 11  2  0  0  0
 17 18  1  0  0  0
 19 28  1  0  0  0
 20 26  2  0  0  0
 22 14  1  0  0  0
 24  4  1  0  0  0
 26  8  1  0  0  0
 26 19  1  0  0  0
 26 21  2  0  0  0
 27 19  1  0  0  0
M  END
>  <CHROM.0>
-61.04110873,-138.61049434,-63.04841601

>  <CHROM.1>
136.67001754,30.31452094,44.42606276,149.90165907,-125.91766868,23.31430859
28.25545293,28.99026173,-0.43931281,-0.69375959,-0.73403438

>  <FORMUL>
      S58    C16 H11 Br1 F3 N3 O2 S1

>  <HET>
 S58  A 701      28

>  <HETNAM>
     S58 1-PHENYLSULFONAMIDE-3-TRIFLUOROMETHYL-5-PARABROMOPHENYL
   2 S58 PYRAZOLE

>  <Name>
S58.pdb

>  <RI>
0

>  <Rbt.Current_Directory>
/home/malgorzata/Desktop/rDOCK_IFD/Wyniki/3_COX2

>  <Rbt.Executable>
rbdock ($Id: //depot/dev/client3/rdock/2013.1/src/exe/rbdock.cxx#4 $)

>  <Rbt.Library>
libRbt.so (2013.1, Build901 2013/11/27)

>  <Rbt.Parameter_File>
/home/malgorzata/Desktop/rDock_2013.1_src/data/scripts/soft_docking.prm

>  <Rbt.Receptor>
cavity.prm

>  <SCORE>
-16.9103

>  <SCORE.INTER>
-12.3767

>  <SCORE.INTER.CONST>
1

>  <SCORE.INTER.POLAR>
-0.609776

>  <SCORE.INTER.REPUL>
0

>  <SCORE.INTER.ROT>
5

>  <SCORE.INTER.VDW>
-20.7035

>  <SCORE.INTER.norm>
-0.476028

>  <SCORE.INTRA>
-0.844275

>  <SCORE.INTRA.DIHEDRAL>
-4.64131

>  <SCORE.INTRA.DIHEDRAL.0>
18.1022

>  <SCORE.INTRA.POLAR>
0

>  <SCORE.INTRA.POLAR.0>
0

>  <SCORE.INTRA.REPUL>
0

>  <SCORE.INTRA.REPUL.0>
0

>  <SCORE.INTRA.VDW>
0.0839867

>  <SCORE.INTRA.VDW.0>
-2.81782

>  <SCORE.INTRA.norm>
-0.0324721

>  <SCORE.RESTR>
0.228719

>  <SCORE.RESTR.CAVITY>
0.228719

>  <SCORE.RESTR.norm>
0.00879687

>  <SCORE.SYSTEM>
-3.91802

>  <SCORE.SYSTEM.CONST>
0

>  <SCORE.SYSTEM.DIHEDRAL>
0.823991

>  <SCORE.SYSTEM.POLAR>
-0.815296

>  <SCORE.SYSTEM.VDW>
-1.55801

>  <SCORE.SYSTEM.norm>
-0.150693

>  <SCORE.heavy>
26

>  <SCORE.norm>
-0.650396

$$$$
S58.pdb
  rDOCK(R)          3D
libRbt.so/2013.1/901 2013/11/27
 28 30  0  0  0  0  0  0  0  0999 V2000
   24.9777   31.6032   28.6083 C   0  0  0  0  0  0
   26.2052   31.2096   28.1693 C   0  0  0  0  0  0
   24.6197   30.6766   29.7213 C   0  0  0  0  0  0
   23.3393   30.5986   30.4977 C   0  0  0  0  0  0
   27.8941   29.6343   29.0644 C   0  0  0  0  0  0
   28.8194   30.3979   29.7872 C   0  0  0  0  0  0
   30.0956   29.8996   30.0029 C   0  0  0  0  0  0
   30.4437   28.6272   29.4939 C   0  0  0  0  0  0
   29.5127   27.8634   28.7703 C   0  0  0  0  0  0
   28.2303   28.3733   28.5528 C   0  0  0  0  0  0
   26.9307   31.8256   27.0165 C   0  0  0  0  0  0
   26.7687   33.2084   26.7469 C   0  0  0  0  0  0
   27.5567   33.8347   25.7634 C   0  0  0  0  0  0
   28.5014   33.0952   25.0568 C   0  0  0  0  0  0
   28.6452   31.7242   25.2964 C   0  0  0  0  0  0
   27.8580   31.0834   26.2820 C   0  0  0  0  0  0
   26.6281   30.1426   28.9291 N   0  0  0  0  0  0
   25.6148   29.8498   29.8940 N   0  0  0  0  0  0
   33.1090   28.3900   28.4040 N   0  0  0  0  0  0
   32.0254   26.5416   29.9568 O   0  0  0  0  0  0
   32.6317   28.5593   30.9811 O   0  0  0  0  0  0
   29.6724   33.9659   23.9262 Br  0  0  0  0  0  0
   22.4438   31.4744   29.9772 F   0  0  0  0  0  0
   23.5763   30.8432   31.7961 F   0  0  0  0  0  0
   22.8545   29.3586   30.3682 F   0  0  0  0  0  0
   32.1148   27.9571   29.7843 S   0  0  0  0  0  0
   33.5318   29.2705   28.3683 H   0  0  0  0  0  0
   33.2423   27.7502   27.6718 H   0  0  0  0  0  0
  1  3  1  0  0  0
  2  1  2  0  0  0
  2 17  1  0  0  0
  3 18  2  0  0  0
  3  4  1  0  0  0
  4 23  1  0  0  0
  4 25  1  0  0  0
  5 17  1  0  0  0
  5  6  2  0  0  0
  7  6  1  0  0  0
  8  7  2  0  0  0
  9 10  2  0  0  0
  9  8  1  0  0  0
 10  5  1  0  0  0
 11  2  1  0  0  0
 12 11  1  0  0  0
 13 12  2  0  0  0
 14 15  2  0  0  0
 14 13  1  0  0  0
 15 16  1  0  0  0
 16 11  2  0  0  0
 17 18  1  0  0  0
 19 28  1  0  0  0
 20 26  2  0  0  0
 22 14  1  0  0  0
 24  4  1  0  0  0
 26  8  1  0  0  0
 26 19  1  0  0  0
 26 21  2  0  0  0
 27 19  1  0  0  0
M  END
>  <CHROM.0>
-152.74076206,-54.17901818,-58.06828210

>  <CHROM.1>
4.22653244,71.33431976,32.71077312,-93.42514424,83.70560820,28.12478041,30.78715325
28.04118054,2.41883521,-0.27546368,2.29357055

>  <FORMUL>
      S58    C16 H11 Br1 F3 N3 O2 S1

>  <HET>
 S58  A 701      28

>  <HETNAM>
     S58 1-PHENYLSULFONAMIDE-3-TRIFLUOROMETHYL-5-PARABROMOPHENYL
   2 S58 PYRAZOLE

>  <Name>
S58.pdb

>  <RI>
0

>  <Rbt.Current_Directory>
/home/malgorzata/Desktop/rDOCK_IFD/Wyniki/3_COX2

>  <Rbt.Executable>
rbdock ($Id: //depot/dev/client3/rdock/2013.1/src/exe/rbdock.cxx#4 $)

>  <Rbt.Library>
libRbt.so (2013.1, Build901 2013/11/27)

>  <Rbt.Parameter_File>
/home/malgorzata/Desktop/rDock_2013.1_src/data/scripts/soft_docking.prm

>  <Rbt.Receptor>
cavity.prm

>  <SCORE>
-22.105

>  <SCORE.INTER>
-18.5389

>  <SCORE.INTER.CONST>
1

>  <SCORE.INTER.POLAR>
-1.685

>  <SCORE.INTER.REPUL>
0

>  <SCORE.INTER.ROT>
5

>  <SCORE.INTER.VDW>
-23.2099

>  <SCORE.INTER.norm>
-0.713034

>  <SCORE.INTRA>
-0.300893

>  <SCORE.INTRA.DIHEDRAL>
0.0113273

>  <SCORE.INTRA.DIHEDRAL.0>
18.1022

>  <SCORE.INTRA.POLAR>
0

>  <SCORE.INTRA.POLAR.0>
0

>  <SCORE.INTRA.REPUL>
0

>  <SCORE.INTRA.REPUL.0>
0

>  <SCORE.INTRA.VDW>
-0.303158

>  <SCORE.INTRA.VDW.0>
-2.81782

>  <SCORE.INTRA.norm>
-0.0115728

>  <SCORE.RESTR>
0.422241

>  <SCORE.RESTR.CAVITY>
0.422241

>  <SCORE.RESTR.norm>
0.01624

>  <SCORE.SYSTEM>
-3.68749

>  <SCORE.SYSTEM.CONST>
0

>  <SCORE.SYSTEM.DIHEDRAL>
0.842889

>  <SCORE.SYSTEM.POLAR>
-0.79264

>  <SCORE.SYSTEM.VDW>
-1.41396

>  <SCORE.SYSTEM.norm>
-0.141827

>  <SCORE.heavy>
26

>  <SCORE.norm>
-0.850193

$$$$
S58.pdb
  rDOCK(R)          3D
libRbt.so/2013.1/901 2013/11/27
 28 30  0  0  0  0  0  0  0  0999 V2000
   23.9510   29.5878   25.9104 C   0  0  0  0  0  0
   24.1120   28.6520   26.8866 C   0  0  0  0  0  0
   22.5434   29.4520   25.4354 C   0  0  0  0  0  0
   21.8634   30.1707   24.3087 C   0  0  0  0  0  0
   22.5242   27.1972   28.1102 C   0  0  0  0  0  0
   22.6453   25.8095   27.9640 C   0  0  0  0  0  0
   22.3104   24.9795   29.0235 C   0  0  0  0  0  0
   21.8552   25.5451   30.2368 C   0  0  0  0  0  0
   21.7360   26.9376   30.3804 C   0  0  0  0  0  0
   22.0707   27.7676   29.3077 C   0  0  0  0  0  0
   25.3958   28.3906   27.6066 C   0  0  0  0  0  0
   26.4050   27.6176   26.9780 C   0  0  0  0  0  0
   27.6724   27.4881   27.5757 C   0  0  0  0  0  0
   27.9374   28.1251   28.7850 C   0  0  0  0  0  0
   26.9369   28.8641   29.4257 C   0  0  0  0  0  0
   25.6585   29.0006   28.8350 C   0  0  0  0  0  0
   22.9240   27.9780   27.0567 N   0  0  0  0  0  0
   21.9679   28.5164   26.1404 N   0  0  0  0  0  0
   21.4847   22.8037   31.0707 N   0  0  0  0  0  0
   20.1283   24.8178   32.1222 O   0  0  0  0  0  0
   22.4002   24.6711   32.6746 O   0  0  0  0  0  0
   29.6594   28.1258   29.4502 Br  0  0  0  0  0  0
   20.7764   30.8274   24.7855 F   0  0  0  0  0  0
   21.5331   29.2987   23.3433 F   0  0  0  0  0  0
   22.7244   31.0663   23.8127 F   0  0  0  0  0  0
   21.4258   24.4629   31.6405 S   0  0  0  0  0  0
   21.8391   22.1034   31.6531 H   0  0  0  0  0  0
   21.1607   22.5788   30.1720 H   0  0  0  0  0  0
  1  3  1  0  0  0
  2  1  2  0  0  0
  2 17  1  0  0  0
  3 18  2  0  0  0
  3  4  1  0  0  0
  4 23  1  0  0  0
  4 25  1  0  0  0
  5 17  1  0  0  0
  5  6  2  0  0  0
  7  6  1  0  0  0
  8  7  2  0  0  0
  9 10  2  0  0  0
  9  8  1  0  0  0
 10  5  1  0  0  0
 11  2  1  0  0  0
 12 11  1  0  0  0
 13 12  2  0  0  0
 14 15  2  0  0  0
 14 13  1  0  0  0
 15 16  1  0  0  0
 16 11  2  0  0  0
 17 18  1  0  0  0
 19 28  1  0  0  0
 20 26  2  0  0  0
 22 14  1  0  0  0
 24  4  1  0  0  0
 26  8  1  0  0  0
 26 19  1  0  0  0
 26 21  2  0  0  0
 27 19  1  0  0  0
M  END
>  <CHROM.0>
-56.17684565,-16.13062371,-60.85612608

>  <CHROM.1>
-122.24149751,-99.17457987,-78.85229976,-7.54469762,141.55681671,24.19906503
27.59407959,28.31939732,0.30914446,-0.19331249,-0.91475537

>  <FORMUL>
      S58    C16 H11 Br1 F3 N3 O2 S1

>  <HET>
 S58  A 701      28

>  <HETNAM>
     S58 1-PHENYLSULFONAMIDE-3-TRIFLUOROMETHYL-5-PARABROMOPHENYL
   2 S58 PYRAZOLE

>  <Name>
S58.pdb

>  <RI>
0

>  <Rbt.Current_Directory>
/home/malgorzata/Desktop/rDOCK_IFD/Wyniki/3_COX2

>  <Rbt.Executable>
rbdock ($Id: //depot/dev/client3/rdock/2013.1/src/exe/rbdock.cxx#4 $)

>  <Rbt.Library>
libRbt.so (2013.1, Build901 2013/11/27)

>  <Rbt.Parameter_File>
/home/malgorzata/Desktop/rDock_2013.1_src/data/scripts/soft_docking.prm

>  <Rbt.Receptor>
cavity.prm

>  <SCORE>
-29.4035

>  <SCORE.INTER>
-27.458

>  <SCORE.INTER.CONST>
1

>  <SCORE.INTER.POLAR>
-1.76446

>  <SCORE.INTER.REPUL>
0

>  <SCORE.INTER.ROT>
5

>  <SCORE.INTER.VDW>
-31.8589

>  <SCORE.INTER.norm>
-1.05608

>  <SCORE.INTRA>
1.2525

>  <SCORE.INTRA.DIHEDRAL>
10.0259

>  <SCORE.INTRA.DIHEDRAL.0>
18.1022

>  <SCORE.INTRA.POLAR>
0

>  <SCORE.INTRA.POLAR.0>
0

>  <SCORE.INTRA.REPUL>
0

>  <SCORE.INTRA.REPUL.0>
0

>  <SCORE.INTRA.VDW>
-0.75268

>  <SCORE.INTRA.VDW.0>
-2.81782

>  <SCORE.INTRA.norm>
0.048173

>  <SCORE.RESTR>
0.355424

>  <SCORE.RESTR.CAVITY>
0.355424

>  <SCORE.RESTR.norm>
0.0136701

>  <SCORE.SYSTEM>
-3.55338

>  <SCORE.SYSTEM.CONST>
0

>  <SCORE.SYSTEM.DIHEDRAL>
0.792064

>  <SCORE.SYSTEM.POLAR>
-0.800082

>  <SCORE.SYSTEM.VDW>
-1.22913

>  <SCORE.SYSTEM.norm>
-0.136668

>  <SCORE.heavy>
26

>  <SCORE.norm>
-1.1309

$$$$
S58.pdb
  rDOCK(R)          3D
libRbt.so/2013.1/901 2013/11/27
 28 30  0  0  0  0  0  0  0  0999 V2000
   25.1450   32.4913   28.5135 C   0  0  0  0  0  0
   25.3823   31.1510   28.5559 C   0  0  0  0  0  0
   23.8837   32.6637   27.7360 C   0  0  0  0  0  0
   23.2162   33.9362   27.3071 C   0  0  0  0  0  0
   24.0190   29.1743   27.9481 C   0  0  0  0  0  0
   22.6519   28.8700   27.9546 C   0  0  0  0  0  0
   22.2477   27.5432   27.9505 C   0  0  0  0  0  0
   23.2203   26.5170   27.9361 C   0  0  0  0  0  0
   24.5909   26.8259   27.9284 C   0  0  0  0  0  0
   24.9910   28.1644   27.9372 C   0  0  0  0  0  0
   26.5821   30.5221   29.1883 C   0  0  0  0  0  0
   27.7733   30.3737   28.4332 C   0  0  0  0  0  0
   28.9533   29.9242   29.0543 C   0  0  0  0  0  0
   28.9521   29.6292   30.4150 C   0  0  0  0  0  0
   27.7729   29.7443   31.1594 C   0  0  0  0  0  0
   26.5802   30.1944   30.5457 C   0  0  0  0  0  0
   24.3684   30.4988   27.8916 N   0  0  0  0  0  0
   23.4477   31.4786   27.4060 N   0  0  0  0  0  0
   22.5378   24.2813   26.2382 N   0  0  0  0  0  0
   21.4685   24.6426   28.6315 O   0  0  0  0  0  0
   23.7191   23.9956   28.5665 O   0  0  0  0  0  0
   30.5481   29.2480   31.2607 Br  0  0  0  0  0  0
   23.9476   34.9945   27.7372 F   0  0  0  0  0  0
   21.9604   33.9754   27.7793 F   0  0  0  0  0  0
   23.1809   33.9518   25.9700 F   0  0  0  0  0  0
   22.6990   24.7696   27.9164 S   0  0  0  0  0  0
   21.6575   24.2887   25.8135 H   0  0  0  0  0  0
   23.3283   24.0042   25.7267 H   0  0  0  0  0  0
  1  3  1  0  0  0
  2  1  2  0  0  0
  2 17  1  0  0  0
  3 18  2  0  0  0
  3  4  1  0  0  0
  4 23  1  0  0  0
  4 25  1  0  0  0
  5 17  1  0  0  0
  5  6  2  0  0  0
  7  6  1  0  0  0
  8  7  2  0  0  0
  9 10  2  0  0  0
  9  8  1  0  0  0
 10  5  1  0  0  0
 11  2  1  0  0  0
 12 11  1  0  0  0
 13 12  2  0  0  0
 14 15  2  0  0  0
 14 13  1  0  0  0
 15 16  1  0  0  0
 16 11  2  0  0  0
 17 18  1  0  0  0
 19 28  1  0  0  0
 20 26  2  0  0  0
 22 14  1  0  0  0
 24  4  1  0  0  0
 26  8  1  0  0  0
 26 19  1  0  0  0
 26 21  2  0  0  0
 27 19  1  0  0  0
M  END
>  <CHROM.0>
-118.72271296,85.67367837,-50.67722472

>  <CHROM.1>
0.13410264,140.21276192,-86.25978916,89.80732703,-97.25340686,25.42011018
29.41393223,28.72759027,0.32283615,-0.44683189,-0.08796198

>  <FORMUL>
      S58    C16 H11 Br1 F3 N3 O2 S1

>  <HET>
 S58  A 701      28

>  <HETNAM>
     S58 1-PHENYLSULFONAMIDE-3-TRIFLUOROMETHYL-5-PARABROMOPHENYL
   2 S58 PYRAZOLE

>  <Name>
S58.pdb

>  <RI>
0

>  <Rbt.Current_Directory>
/home/malgorzata/Desktop/rDOCK_IFD/Wyniki/3_COX2

>  <Rbt.Executable>
rbdock ($Id: //depot/dev/client3/rdock/2013.1/src/exe/rbdock.cxx#4 $)

>  <Rbt.Library>
libRbt.so (2013.1, Build901 2013/11/27)

>  <Rbt.Parameter_File>
/home/malgorzata/Desktop/rDock_2013.1_src/data/scripts/soft_docking.prm

>  <Rbt.Receptor>
cavity.prm

>  <SCORE>
-21.0385

>  <SCORE.INTER>
-16.9572

>  <SCORE.INTER.CONST>
1

>  <SCORE.INTER.POLAR>
-1.7981

>  <SCORE.INTER.REPUL>
0

>  <SCORE.INTER.ROT>
5

>  <SCORE.INTER.VDW>
-21.2437

>  <SCORE.INTER.norm>
-0.652202

>  <SCORE.INTRA>
0.218278

>  <SCORE.INTRA.DIHEDRAL>
1.46454

>  <SCORE.INTRA.DIHEDRAL.0>
18.1022

>  <SCORE.INTRA.POLAR>
0

>  <SCORE.INTRA.POLAR.0>
0

>  <SCORE.INTRA.REPUL>
0

>  <SCORE.INTRA.REPUL.0>
0

>  <SCORE.INTRA.VDW>
-0.0746304

>  <SCORE.INTRA.VDW.0>
-2.81782

>  <SCORE.INTRA.norm>
0.00839529

>  <SCORE.RESTR>
0.154608

>  <SCORE.RESTR.CAVITY>
0.154608

>  <SCORE.RESTR.norm>
0.00594647

>  <SCORE.SYSTEM>
-4.45418

>  <SCORE.SYSTEM.CONST>
0

>  <SCORE.SYSTEM.DIHEDRAL>
1.19959

>  <SCORE.SYSTEM.POLAR>
-1.00646

>  <SCORE.SYSTEM.VDW>
-1.63202

>  <SCORE.SYSTEM.norm>
-0.171314

>  <SCORE.heavy>
26

>  <SCORE.norm>
-0.809174

$$$$
S58.pdb
  rDOCK(R)          3D
libRbt.so/2013.1/901 2013/11/27
 28 30  0  0  0  0  0  0  0  0999 V2000
   24.0906   34.1321   30.0303 C   0  0  0  0  0  0
   25.0763   33.4124   29.4263 C   0  0  0  0  0  0
   22.8434   33.3262   29.8879 C   0  0  0  0  0  0
   21.4448   33.6892   30.2886 C   0  0  0  0  0  0
   25.1896   31.0914   28.5689 C   0  0  0  0  0  0
   25.0075   30.6583   27.2494 C   0  0  0  0  0  0
   25.6896   29.5383   26.7981 C   0  0  0  0  0  0
   26.5616   28.8516   27.6741 C   0  0  0  0  0  0
   26.7428   29.2895   28.9967 C   0  0  0  0  0  0
   26.0492   30.4157   29.4462 C   0  0  0  0  0  0
   26.4915   33.8708   29.2786 C   0  0  0  0  0  0
   27.2112   34.2977   30.4235 C   0  0  0  0  0  0
   28.5849   34.5882   30.3282 C   0  0  0  0  0  0
   29.2398   34.4511   29.1072 C   0  0  0  0  0  0
   28.5294   34.0598   27.9671 C   0  0  0  0  0  0
   27.1479   33.7659   28.0505 C   0  0  0  0  0  0
   24.5407   32.2372   28.9502 N   0  0  0  0  0  0
   23.1476   32.2175   29.2699 N   0  0  0  0  0  0
   29.0451   27.3881   27.8682 N   0  0  0  0  0  0
   27.5842   27.4464   25.6627 O   0  0  0  0  0  0
   26.7283   26.2187   27.4649 O   0  0  0  0  0  0
   31.0762   34.6267   29.0396 Br  0  0  0  0  0  0
   20.7049   32.5589   30.4120 F   0  0  0  0  0  0
   20.9159   34.5334   29.3890 F   0  0  0  0  0  0
   21.5025   34.2983   31.4782 F   0  0  0  0  0  0
   27.4738   27.3861   27.0860 S   0  0  0  0  0  0
   29.1185   27.6468   28.8079 H   0  0  0  0  0  0
   29.8470   27.1282   27.3656 H   0  0  0  0  0  0
  1  3  1  0  0  0
  2  1  2  0  0  0
  2 17  1  0  0  0
  3 18  2  0  0  0
  3  4  1  0  0  0
  4 23  1  0  0  0
  4 25  1  0  0  0
  5 17  1  0  0  0
  5  6  2  0  0  0
  7  6  1  0  0  0
  8  7  2  0  0  0
  9 10  2  0  0  0
  9  8  1  0  0  0
 10  5  1  0  0  0
 11  2  1  0  0  0
 12 11  1  0  0  0
 13 12  2  0  0  0
 14 15  2  0  0  0
 14 13  1  0  0  0
 15 16  1  0  0  0
 16 11  2  0  0  0
 17 18  1  0  0  0
 19 28  1  0  0  0
 20 26  2  0  0  0
 22 14  1  0  0  0
 24  4  1  0  0  0
 26  8  1  0  0  0
 26 19  1  0  0  0
 26 21  2  0  0  0
 27 19  1  0  0  0
M  END
>  <CHROM.0>
86.27874691,-37.61218397,-37.90801619

>  <CHROM.1>
-159.48652223,-120.65089601,53.19884518,144.98167900,39.82317551,26.44909827
32.05285860,28.82757124,-2.87026500,-0.14710245,-2.79971587

>  <FORMUL>
      S58    C16 H11 Br1 F3 N3 O2 S1

>  <HET>
 S58  A 701      28

>  <HETNAM>
     S58 1-PHENYLSULFONAMIDE-3-TRIFLUOROMETHYL-5-PARABROMOPHENYL
   2 S58 PYRAZOLE

>  <Name>
S58.pdb

>  <RI>
0

>  <Rbt.Current_Directory>
/home/malgorzata/Desktop/rDOCK_IFD/Wyniki/3_COX2

>  <Rbt.Executable>
rbdock ($Id: //depot/dev/client3/rdock/2013.1/src/exe/rbdock.cxx#4 $)

>  <Rbt.Library>
libRbt.so (2013.1, Build901 2013/11/27)

>  <Rbt.Parameter_File>
/home/malgorzata/Desktop/rDock_2013.1_src/data/scripts/soft_docking.prm

>  <Rbt.Receptor>
cavity.prm

>  <SCORE>
-20.5212

>  <SCORE.INTER>
-18.6957

>  <SCORE.INTER.CONST>
1

>  <SCORE.INTER.POLAR>
-2.79065

>  <SCORE.INTER.REPUL>
0

>  <SCORE.INTER.ROT>
5

>  <SCORE.INTER.VDW>
-19.6075

>  <SCORE.INTER.norm>
-0.719067

>  <SCORE.INTRA>
-0.0959353

>  <SCORE.INTRA.DIHEDRAL>
3.07588

>  <SCORE.INTRA.DIHEDRAL.0>
18.1022

>  <SCORE.INTRA.POLAR>
0

>  <SCORE.INTRA.POLAR.0>
0

>  <SCORE.INTRA.REPUL>
0

>  <SCORE.INTRA.REPUL.0>
0

>  <SCORE.INTRA.VDW>
-0.711111

>  <SCORE.INTRA.VDW.0>
-2.81782

>  <SCORE.INTRA.norm>
-0.00368982

>  <SCORE.RESTR>
0.408853

>  <SCORE.RESTR.CAVITY>
0.408853

>  <SCORE.RESTR.norm>
0.0157251

>  <SCORE.SYSTEM>
-2.13835

>  <SCORE.SYSTEM.CONST>
0

>  <SCORE.SYSTEM.DIHEDRAL>
2.96287

>  <SCORE.SYSTEM.POLAR>
-0.690225

>  <SCORE.SYSTEM.VDW>
-1.27302

>  <SCORE.SYSTEM.norm>
-0.0822441

>  <SCORE.heavy>
26

>  <SCORE.norm>
-0.789276

$$$$
S58.pdb
  rDOCK(R)          3D
libRbt.so/2013.1/901 2013/11/27
 28 30  0  0  0  0  0  0  0  0999 V2000
   29.2049   29.6752   29.2859 C   0  0  0  0  0  0
   28.2900   30.1897   28.4184 C   0  0  0  0  0  0
   28.4218   29.0693   30.4017 C   0  0  0  0  0  0
   28.9274   28.4490   31.6698 C   0  0  0  0  0  0
   25.8297   29.9720   28.2326 C   0  0  0  0  0  0
   25.4289   31.2062   27.7055 C   0  0  0  0  0  0
   24.2552   31.2861   26.9708 C   0  0  0  0  0  0
   23.4820   30.1211   26.7610 C   0  0  0  0  0  0
   23.8877   28.8845   27.2902 C   0  0  0  0  0  0
   25.0685   28.8119   28.0331 C   0  0  0  0  0  0
   28.6325   30.9475   27.1761 C   0  0  0  0  0  0
   27.8042   30.8248   26.0316 C   0  0  0  0  0  0
   28.0242   31.6428   24.9079 C   0  0  0  0  0  0
   29.0551   32.5786   24.9222 C   0  0  0  0  0  0
   29.8951   32.6839   26.0361 C   0  0  0  0  0  0
   29.6842   31.8662   27.1714 C   0  0  0  0  0  0
   27.0266   29.9318   28.8999 N   0  0  0  0  0  0
   27.1535   29.2201   30.1331 N   0  0  0  0  0  0
   21.6733   31.8987   25.3765 N   0  0  0  0  0  0
   20.8708   29.6690   26.5541 O   0  0  0  0  0  0
   22.1297   29.4339   24.5925 O   0  0  0  0  0  0
   29.2001   33.7879   23.5349 Br  0  0  0  0  0  0
   29.7970   29.2993   32.2706 F   0  0  0  0  0  0
   29.4964   27.2629   31.4034 F   0  0  0  0  0  0
   27.8807   28.2591   32.4808 F   0  0  0  0  0  0
   21.9446   30.2131   25.7844 S   0  0  0  0  0  0
   22.0929   32.6006   25.9119 H   0  0  0  0  0  0
   21.1049   32.1363   24.6126 H   0  0  0  0  0  0
  1  3  1  0  0  0
  2  1  2  0  0  0
  2 17  1  0  0  0
  3 18  2  0  0  0
  3  4  1  0  0  0
  4 23  1  0  0  0
  4 25  1  0  0  0
  5 17  1  0  0  0
  5  6  2  0  0  0
  7  6  1  0  0  0
  8  7  2  0  0  0
  9 10  2  0  0  0
  9  8  1  0  0  0
 10  5  1  0  0  0
 11  2  1  0  0  0
 12 11  1  0  0  0
 13 12  2  0  0  0
 14 15  2  0  0  0
 14 13  1  0  0  0
 15 16  1  0  0  0
 16 11  2  0  0  0
 17 18  1  0  0  0
 19 28  1  0  0  0
 20 26  2  0  0  0
 22 14  1  0  0  0
 24  4  1  0  0  0
 26  8  1  0  0  0
 26 19  1  0  0  0
 26 21  2  0  0  0
 27 19  1  0  0  0
M  END
>  <CHROM.0>
167.53570087,28.18259558,-65.47007816

>  <CHROM.1>
50.77232579,-62.39535241,146.03826500,-4.34591145,-21.60778301,26.81858099
30.72110720,27.17787525,-1.28143068,-0.23225794,-0.99741931

>  <FORMUL>
      S58    C16 H11 Br1 F3 N3 O2 S1

>  <HET>
 S58  A 701      28

>  <HETNAM>
     S58 1-PHENYLSULFONAMIDE-3-TRIFLUOROMETHYL-5-PARABROMOPHENYL
   2 S58 PYRAZOLE

>  <Name>
S58.pdb

>  <RI>
0

>  <Rbt.Current_Directory>
/home/malgorzata/Desktop/rDOCK_IFD/Wyniki/3_COX2

>  <Rbt.Executable>
rbdock ($Id: //depot/dev/client3/rdock/2013.1/src/exe/rbdock.cxx#4 $)

>  <Rbt.Library>
libRbt.so (2013.1, Build901 2013/11/27)

>  <Rbt.Parameter_File>
/home/malgorzata/Desktop/rDock_2013.1_src/data/scripts/soft_docking.prm

>  <Rbt.Receptor>
cavity.prm

>  <SCORE>
-18.4895

>  <SCORE.INTER>
-14.5906

>  <SCORE.INTER.CONST>
1

>  <SCORE.INTER.POLAR>
0

>  <SCORE.INTER.REPUL>
0

>  <SCORE.INTER.ROT>
5

>  <SCORE.INTER.VDW>
-24.9906

>  <SCORE.INTER.norm>
-0.561176

>  <SCORE.INTRA>
-0.162306

>  <SCORE.INTRA.DIHEDRAL>
-1.76037

>  <SCORE.INTRA.DIHEDRAL.0>
18.1022

>  <SCORE.INTRA.POLAR>
0

>  <SCORE.INTRA.POLAR.0>
0

>  <SCORE.INTRA.REPUL>
0

>  <SCORE.INTRA.REPUL.0>
0

>  <SCORE.INTRA.VDW>
0.189768

>  <SCORE.INTRA.VDW.0>
-2.81782

>  <SCORE.INTRA.norm>
-0.00624253

>  <SCORE.RESTR>
0

>  <SCORE.RESTR.CAVITY>
0

>  <SCORE.RESTR.norm>
0

>  <SCORE.SYSTEM>
-3.73667

>  <SCORE.SYSTEM.CONST>
0

>  <SCORE.SYSTEM.DIHEDRAL>
0.946235

>  <SCORE.SYSTEM.POLAR>
-0.809933

>  <SCORE.SYSTEM.VDW>
-1.45602

>  <SCORE.SYSTEM.norm>
-0.143718

>  <SCORE.heavy>
26

>  <SCORE.norm>
-0.711136

$$$$
S58.pdb
  rDOCK(R)          3D
libRbt.so/2013.1/901 2013/11/27
 28 30  0  0  0  0  0  0  0  0999 V2000
   22.6346   29.0091   27.3450 C   0  0  0  0  0  0
   23.9165   29.4252   27.5400 C   0  0  0  0  0  0
   22.6890   27.5200   27.2760 C   0  0  0  0  0  0
   21.5785   26.5565   26.9811 C   0  0  0  0  0  0
   26.0116   28.2322   28.1078 C   0  0  0  0  0  0
   26.9646   27.5839   27.3120 C   0  0  0  0  0  0
   28.2822   27.5201   27.7401 C   0  0  0  0  0  0
   28.6460   28.1130   28.9711 C   0  0  0  0  0  0
   27.6877   28.7636   29.7663 C   0  0  0  0  0  0
   26.3614   28.8202   29.3313 C   0  0  0  0  0  0
   24.3416   30.8567   27.6110 C   0  0  0  0  0  0
   23.3601   31.8715   27.7447 C   0  0  0  0  0  0
   23.7478   33.2064   27.9639 C   0  0  0  0  0  0
   25.0989   33.5304   28.0547 C   0  0  0  0  0  0
   26.0731   32.5391   27.8934 C   0  0  0  0  0  0
   25.6954   31.1937   27.6717 C   0  0  0  0  0  0
   24.7357   28.3215   27.6144 N   0  0  0  0  0  0
   23.9282   27.1525   27.4571 N   0  0  0  0  0  0
   31.2362   26.9258   28.4925 N   0  0  0  0  0  0
   30.4072   27.6338   30.9036 O   0  0  0  0  0  0
   30.9342   29.3656   29.4166 O   0  0  0  0  0  0
   25.5893   35.2388   28.5533 Br  0  0  0  0  0  0
   22.0849   25.3014   26.8889 F   0  0  0  0  0  0
   20.9445   26.9202   25.8553 F   0  0  0  0  0  0
   20.7151   26.5987   28.0019 F   0  0  0  0  0  0
   30.3787   28.0468   29.5360 S   0  0  0  0  0  0
   30.7569   26.1755   28.0893 H   0  0  0  0  0  0
   32.1925   27.0526   28.3119 H   0  0  0  0  0  0
  1  3  1  0  0  0
  2  1  2  0  0  0
  2 17  1  0  0  0
  3 18  2  0  0  0
  3  4  1  0  0  0
  4 23  1  0  0  0
  4 25  1  0  0  0
  5 17  1  0  0  0
  5  6  2  0  0  0
  7  6  1  0  0  0
  8  7  2  0  0  0
  9 10  2  0  0  0
  9  8  1  0  0  0
 10  5  1  0  0  0
 11  2  1  0  0  0
 12 11  1  0  0  0
 13 12  2  0  0  0
 14 15  2  0  0  0
 14 13  1  0  0  0
 15 16  1  0  0  0
 16 11  2  0  0  0
 17 18  1  0  0  0
 19 28  1  0  0  0
 20 26  2  0  0  0
 22 14  1  0  0  0
 24  4  1  0  0  0
 26  8  1  0  0  0
 26 19  1  0  0  0
 26 21  2  0  0  0
 27 19  1  0  0  0
M  END
>  <CHROM.0>
-98.63837406,-98.26728490,-20.76392356

>  <CHROM.1>
174.11149959,-131.38484957,12.80017297,-10.89215581,-30.05541739,25.69872688
29.81994568,28.19620492,2.19213298,0.26944483,-3.08296805

>  <FORMUL>
      S58    C16 H11 Br1 F3 N3 O2 S1

>  <HET>
 S58  A 701      28

>  <HETNAM>
     S58 1-PHENYLSULFONAMIDE-3-TRIFLUOROMETHYL-5-PARABROMOPHENYL
   2 S58 PYRAZOLE

>  <Name>
S58.pdb

>  <RI>
0

>  <Rbt.Current_Directory>
/home/malgorzata/Desktop/rDOCK_IFD/Wyniki/3_COX2

>  <Rbt.Executable>
rbdock ($Id: //depot/dev/client3/rdock/2013.1/src/exe/rbdock.cxx#4 $)

>  <Rbt.Library>
libRbt.so (2013.1, Build901 2013/11/27)

>  <Rbt.Parameter_File>
/home/malgorzata/Desktop/rDock_2013.1_src/data/scripts/soft_docking.prm

>  <Rbt.Receptor>
cavity.prm

>  <SCORE>
-23.8203

>  <SCORE.INTER>
-22.904

>  <SCORE.INTER.CONST>
1

>  <SCORE.INTER.POLAR>
-2.46087

>  <SCORE.INTER.REPUL>
0

>  <SCORE.INTER.ROT>
5

>  <SCORE.INTER.VDW>
-24.9371

>  <SCORE.INTER.norm>
-0.880923

>  <SCORE.INTRA>
-0.793633

>  <SCORE.INTRA.DIHEDRAL>
-5.84909

>  <SCORE.INTRA.DIHEDRAL.0>
18.1022

>  <SCORE.INTRA.POLAR>
0

>  <SCORE.INTRA.POLAR.0>
0

>  <SCORE.INTRA.REPUL>
0

>  <SCORE.INTRA.REPUL.0>
0

>  <SCORE.INTRA.VDW>
0.376185

>  <SCORE.INTRA.VDW.0>
-2.81782

>  <SCORE.INTRA.norm>
-0.0305243

>  <SCORE.RESTR>
0

>  <SCORE.RESTR.CAVITY>
0

>  <SCORE.RESTR.norm>
0

>  <SCORE.SYSTEM>
-0.12263

>  <SCORE.SYSTEM.CONST>
0

>  <SCORE.SYSTEM.DIHEDRAL>
6.0657

>  <SCORE.SYSTEM.POLAR>
-0.510292

>  <SCORE.SYSTEM.VDW>
-1.42049

>  <SCORE.SYSTEM.norm>
-0.00471653

>  <SCORE.heavy>
26

>  <SCORE.norm>
-0.916164

$$$$
