HMD.pdb
  rDOCK(R)          3D
libRbt.so/2013.1/901 2013/11/27
 24 26  0  0  0  0  0  0  0  0999 V2000
    1.7910   30.7090    6.2909 Br  0  0  0  0  0  0
    5.6475   27.8767    3.8864 O   0  0  0  0  0  0
    4.1153   23.1274    9.2553 O   0  0  0  0  0  0
    3.5882   28.8100    5.3734 N   0  0  0  0  0  0
    5.3839   25.7225    4.6173 N   0  0  0  0  0  0
    2.3649   24.0511   10.4273 N   0  0  0  0  0  0
    2.1790   26.0043    9.3353 N   0  0  0  0  0  0
    0.7068   25.5899   11.0867 N   0  0  0  0  0  0
    2.7554   29.1305    6.3660 C   0  0  0  0  0  0
    2.7491   28.1704    7.3347 C   0  0  0  0  0  0
    3.6478   27.1596    6.8995 C   0  0  0  0  0  0
    4.1612   27.6180    5.6472 C   0  0  0  0  0  0
    5.1096   27.0772    4.6637 C   0  0  0  0  0  0
    4.8356   24.6492    5.4640 C   0  0  0  0  0  0
    5.0233   24.8971    6.9498 C   0  0  0  0  0  0
    3.9366   25.7852    7.5491 C   0  0  0  0  0  0
    3.2150   25.3398    8.6620 C   0  0  0  0  0  0
    3.3097   24.0493    9.4567 C   0  0  0  0  0  0
    1.7114   25.2137   10.3189 C   0  0  0  0  0  0
    3.7576   29.3547    4.5711 H   0  0  0  0  0  0
    6.0287   25.4389    3.9297 H   0  0  0  0  0  0
    1.8466   26.9061    9.1220 H   0  0  0  0  0  0
    0.3824   24.9938   11.8000 H   0  0  0  0  0  0
    0.2815   26.4666   10.9464 H   0  0  0  0  0  0
  1  9  1  0  0  0
  2 13  2  0  0  0
  3 18  2  0  0  0
  4  9  1  0  0  0
  4 12  1  0  0  0
  4 20  1  0  0  0
  5 13  1  0  0  0
  5 14  1  0  0  0
  5 21  1  0  0  0
  6 18  1  0  0  0
  6 19  2  0  0  0
  7 17  1  0  0  0
  7 19  1  0  0  0
  7 22  1  0  0  0
  8 19  1  0  0  0
  8 23  1  0  0  0
  8 24  1  0  0  0
  9 10  2  0  0  0
 10 11  1  0  0  0
 11 12  2  0  0  0
 11 16  1  0  0  0
 12 13  1  0  0  0
 14 15  1  0  0  0
 15 16  1  0  0  0
 16 17  2  0  0  0
 17 18  1  0  0  0
M  END
>  <CHROM.0>
113.23993324,-101.69239036,173.58956986,-119.39114553,-61.11066012

>  <CHROM.1>
3.14514815,27.23515408,7.12873200,1.66520286,0.81465101,-0.63347455

>  <FORMUL>
      HMD    C11 H10 Br1 N5 O2

>  <HET>
 HMD  A 400      19

>  <HETNAM>
     HMD 4-(5-AMINO-4-OXO-4H-PYRAZOL-3-YL)-2-BROMO-4,5,6,7-TETRA
   2 HMD HYDRO-3AH-PYRROLO[2,3-C]AZEPIN-8-ONE

>  <HETSYN>
     HMD HYMENIALDISINE

>  <Name>
HMD.pdb

>  <RI>
0

>  <Rbt.Current_Directory>
/home/malgorzata/Desktop/rDOCK_IFD/Wyniki/2a_CDK2/IFD

>  <Rbt.Executable>
rbdock ($Id: //depot/dev/client3/rdock/2013.1/src/exe/rbdock.cxx#4 $)

>  <Rbt.Library>
libRbt.so (2013.1, Build901 2013/11/27)

>  <Rbt.Parameter_File>
/home/malgorzata/Desktop/rDock_2013.1_src/data/scripts/hard_docking.prm

>  <Rbt.Receptor>
cavity.prm

>  <SCORE>
-12.3686

>  <SCORE.INTER>
-12.0076

>  <SCORE.INTER.CONST>
1

>  <SCORE.INTER.POLAR>
-0.116934

>  <SCORE.INTER.REPUL>
0

>  <SCORE.INTER.ROT>
0

>  <SCORE.INTER.VDW>
-17.01

>  <SCORE.INTER.norm>
-0.631978

>  <SCORE.INTRA>
0

>  <SCORE.INTRA.DIHEDRAL>
0

>  <SCORE.INTRA.DIHEDRAL.0>
0

>  <SCORE.INTRA.POLAR>
0

>  <SCORE.INTRA.POLAR.0>
0

>  <SCORE.INTRA.REPUL>
0

>  <SCORE.INTRA.REPUL.0>
0

>  <SCORE.INTRA.VDW>
0

>  <SCORE.INTRA.VDW.0>
0

>  <SCORE.INTRA.norm>
0

>  <SCORE.RESTR>
0

>  <SCORE.RESTR.CAVITY>
0

>  <SCORE.RESTR.norm>
0

>  <SCORE.SYSTEM>
-0.361044

>  <SCORE.SYSTEM.CONST>
0

>  <SCORE.SYSTEM.DIHEDRAL>
1.62279

>  <SCORE.SYSTEM.VDW>
-1.17244

>  <SCORE.SYSTEM.norm>
-0.0190023

>  <SCORE.heavy>
19

>  <SCORE.norm>
-0.65098

$$$$
HMD.pdb
  rDOCK(R)          3D
libRbt.so/2013.1/901 2013/11/27
 24 26  0  0  0  0  0  0  0  0999 V2000
   -4.2397   20.7180   15.8189 Br  0  0  0  0  0  0
   -1.7254   25.4066   15.2097 O   0  0  0  0  0  0
    1.5021   21.8146    9.6952 O   0  0  0  0  0  0
   -2.7799   22.9239   14.9935 N   0  0  0  0  0  0
   -0.8719   25.3824   13.0847 N   0  0  0  0  0  0
    0.5152   19.7377    9.6386 N   0  0  0  0  0  0
   -0.8260   19.9169   11.4305 N   0  0  0  0  0  0
   -0.8707   17.9262   10.2300 N   0  0  0  0  0  0
   -2.9724   21.6157   14.8114 C   0  0  0  0  0  0
   -2.1493   21.1261   13.8401 C   0  0  0  0  0  0
   -1.3878   22.2296   13.3699 C   0  0  0  0  0  0
   -1.8230   23.3509   14.1416 C   0  0  0  0  0  0
   -1.4691   24.7767   14.1751 C   0  0  0  0  0  0
   -0.5024   24.7796   11.7927 C   0  0  0  0  0  0
    0.3917   23.5605   11.9291 C   0  0  0  0  0  0
   -0.3874   22.2745   12.1902 C   0  0  0  0  0  0
   -0.1949   21.1678   11.3563 C   0  0  0  0  0  0
    0.7100   20.9759   10.1520 C   0  0  0  0  0  0
   -0.4037   19.1466   10.4112 C   0  0  0  0  0  0
   -3.2585   23.4867   15.6441 H   0  0  0  0  0  0
   -0.6673   26.3401   13.1851 H   0  0  0  0  0  0
   -1.4750   19.6458   12.1193 H   0  0  0  0  0  0
   -0.5461   17.3817    9.4767 H   0  0  0  0  0  0
   -1.5437   17.5599   10.8481 H   0  0  0  0  0  0
  1  9  1  0  0  0
  2 13  2  0  0  0
  3 18  2  0  0  0
  4  9  1  0  0  0
  4 12  1  0  0  0
  4 20  1  0  0  0
  5 13  1  0  0  0
  5 14  1  0  0  0
  5 21  1  0  0  0
  6 18  1  0  0  0
  6 19  2  0  0  0
  7 17  1  0  0  0
  7 19  1  0  0  0
  7 22  1  0  0  0
  8 19  1  0  0  0
  8 23  1  0  0  0
  8 24  1  0  0  0
  9 10  2  0  0  0
 10 11  1  0  0  0
 11 12  2  0  0  0
 11 16  1  0  0  0
 12 13  1  0  0  0
 14 15  1  0  0  0
 15 16  1  0  0  0
 16 17  2  0  0  0
 17 18  1  0  0  0
M  END
>  <CHROM.0>
112.25325259,-113.68340553,-173.90464489,-106.37301262,-61.11066012

>  <CHROM.1>
-1.67320450,21.78344363,13.19573323,2.70351212,0.84425194,0.38832195

>  <FORMUL>
      HMD    C11 H10 Br1 N5 O2

>  <HET>
 HMD  A 400      19

>  <HETNAM>
     HMD 4-(5-AMINO-4-OXO-4H-PYRAZOL-3-YL)-2-BROMO-4,5,6,7-TETRA
   2 HMD HYDRO-3AH-PYRROLO[2,3-C]AZEPIN-8-ONE

>  <HETSYN>
     HMD HYMENIALDISINE

>  <Name>
HMD.pdb

>  <RI>
0

>  <Rbt.Current_Directory>
/home/malgorzata/Desktop/rDOCK_IFD/Wyniki/2a_CDK2/IFD

>  <Rbt.Executable>
rbdock ($Id: //depot/dev/client3/rdock/2013.1/src/exe/rbdock.cxx#4 $)

>  <Rbt.Library>
libRbt.so (2013.1, Build901 2013/11/27)

>  <Rbt.Parameter_File>
/home/malgorzata/Desktop/rDock_2013.1_src/data/scripts/hard_docking.prm

>  <Rbt.Receptor>
cavity.prm

>  <SCORE>
-10.2482

>  <SCORE.INTER>
-11.1635

>  <SCORE.INTER.CONST>
1

>  <SCORE.INTER.POLAR>
-0.578123

>  <SCORE.INTER.REPUL>
0

>  <SCORE.INTER.ROT>
0

>  <SCORE.INTER.VDW>
-14.5979

>  <SCORE.INTER.norm>
-0.587554

>  <SCORE.INTRA>
0

>  <SCORE.INTRA.DIHEDRAL>
0

>  <SCORE.INTRA.DIHEDRAL.0>
0

>  <SCORE.INTRA.POLAR>
0

>  <SCORE.INTRA.POLAR.0>
0

>  <SCORE.INTRA.REPUL>
0

>  <SCORE.INTRA.REPUL.0>
0

>  <SCORE.INTRA.VDW>
0

>  <SCORE.INTRA.VDW.0>
0

>  <SCORE.INTRA.norm>
0

>  <SCORE.RESTR>
1.24989

>  <SCORE.RESTR.CAVITY>
1.24989

>  <SCORE.RESTR.norm>
0.0657837

>  <SCORE.SYSTEM>
-0.334578

>  <SCORE.SYSTEM.CONST>
0

>  <SCORE.SYSTEM.DIHEDRAL>
1.62589

>  <SCORE.SYSTEM.VDW>
-1.14752

>  <SCORE.SYSTEM.norm>
-0.0176094

>  <SCORE.heavy>
19

>  <SCORE.norm>
-0.53938

$$$$
HMD.pdb
  rDOCK(R)          3D
libRbt.so/2013.1/901 2013/11/27
 24 26  0  0  0  0  0  0  0  0999 V2000
    2.1938   25.4942   10.3349 Br  0  0  0  0  0  0
   -0.0532   23.9289   14.9367 O   0  0  0  0  0  0
   -1.2182   17.7854   11.1118 O   0  0  0  0  0  0
    1.0534   24.1582   12.4780 N   0  0  0  0  0  0
   -0.1559   21.6435   14.8322 N   0  0  0  0  0  0
   -0.2346   18.1290    9.0612 N   0  0  0  0  0  0
    0.4358   20.2557    9.3246 N   0  0  0  0  0  0
    0.9069   19.2064    7.3039 N   0  0  0  0  0  0
    1.3164   24.0948   11.1709 C   0  0  0  0  0  0
    0.8686   22.9238   10.6335 C   0  0  0  0  0  0
    0.2876   22.1911   11.7032 C   0  0  0  0  0  0
    0.4251   23.0241   12.8562 C   0  0  0  0  0  0
    0.0571   22.8899   14.2724 C   0  0  0  0  0  0
   -0.0677   20.3234   14.1849 C   0  0  0  0  0  0
   -0.9369   20.1991   12.9466 C   0  0  0  0  0  0
   -0.2672   20.7467   11.6894 C   0  0  0  0  0  0
   -0.1554   19.9345   10.5557 C   0  0  0  0  0  0
   -0.6082   18.5065   10.3072 C   0  0  0  0  0  0
    0.3866   19.1813    8.5159 C   0  0  0  0  0  0
    1.2809   24.9104   13.0708 H   0  0  0  0  0  0
   -0.3975   21.6377   15.7865 H   0  0  0  0  0  0
    0.8250   21.1289    9.0896 H   0  0  0  0  0  0
    0.8584   18.4074    6.7307 H   0  0  0  0  0  0
    1.3436   20.0241    6.9726 H   0  0  0  0  0  0
  1  9  1  0  0  0
  2 13  2  0  0  0
  3 18  2  0  0  0
  4  9  1  0  0  0
  4 12  1  0  0  0
  4 20  1  0  0  0
  5 13  1  0  0  0
  5 14  1  0  0  0
  5 21  1  0  0  0
  6 18  1  0  0  0
  6 19  2  0  0  0
  7 17  1  0  0  0
  7 19  1  0  0  0
  7 22  1  0  0  0
  8 19  1  0  0  0
  8 23  1  0  0  0
  8 24  1  0  0  0
  9 10  2  0  0  0
 10 11  1  0  0  0
 11 12  2  0  0  0
 11 16  1  0  0  0
 12 13  1  0  0  0
 14 15  1  0  0  0
 15 16  1  0  0  0
 16 17  2  0  0  0
 17 18  1  0  0  0
M  END
>  <CHROM.0>
-92.25822998,-99.38051322,76.63527729,-166.15083745,-61.11066012

>  <CHROM.1>
0.62170202,22.13629018,11.26016322,-0.77281448,-1.13024255,-2.21043287

>  <FORMUL>
      HMD    C11 H10 Br1 N5 O2

>  <HET>
 HMD  A 400      19

>  <HETNAM>
     HMD 4-(5-AMINO-4-OXO-4H-PYRAZOL-3-YL)-2-BROMO-4,5,6,7-TETRA
   2 HMD HYDRO-3AH-PYRROLO[2,3-C]AZEPIN-8-ONE

>  <HETSYN>
     HMD HYMENIALDISINE

>  <Name>
HMD.pdb

>  <RI>
0

>  <Rbt.Current_Directory>
/home/malgorzata/Desktop/rDOCK_IFD/Wyniki/2a_CDK2/IFD

>  <Rbt.Executable>
rbdock ($Id: //depot/dev/client3/rdock/2013.1/src/exe/rbdock.cxx#4 $)

>  <Rbt.Library>
libRbt.so (2013.1, Build901 2013/11/27)

>  <Rbt.Parameter_File>
/home/malgorzata/Desktop/rDock_2013.1_src/data/scripts/hard_docking.prm

>  <Rbt.Receptor>
cavity.prm

>  <SCORE>
-11.9101

>  <SCORE.INTER>
-12.2858

>  <SCORE.INTER.CONST>
1

>  <SCORE.INTER.POLAR>
-1.45599

>  <SCORE.INTER.REPUL>
0

>  <SCORE.INTER.ROT>
0

>  <SCORE.INTER.VDW>
-12.7355

>  <SCORE.INTER.norm>
-0.646623

>  <SCORE.INTRA>
0

>  <SCORE.INTRA.DIHEDRAL>
0

>  <SCORE.INTRA.DIHEDRAL.0>
0

>  <SCORE.INTRA.POLAR>
0

>  <SCORE.INTRA.POLAR.0>
0

>  <SCORE.INTRA.REPUL>
0

>  <SCORE.INTRA.REPUL.0>
0

>  <SCORE.INTRA.VDW>
0

>  <SCORE.INTRA.VDW.0>
0

>  <SCORE.INTRA.norm>
0

>  <SCORE.RESTR>
0.102735

>  <SCORE.RESTR.CAVITY>
0.102735

>  <SCORE.RESTR.norm>
0.0054071

>  <SCORE.SYSTEM>
0.272989

>  <SCORE.SYSTEM.CONST>
0

>  <SCORE.SYSTEM.DIHEDRAL>
1.62533

>  <SCORE.SYSTEM.VDW>
-0.539675

>  <SCORE.SYSTEM.norm>
0.0143679

>  <SCORE.heavy>
19

>  <SCORE.norm>
-0.626848

$$$$
HMD.pdb
  rDOCK(R)          3D
libRbt.so/2013.1/901 2013/11/27
 24 26  0  0  0  0  0  0  0  0999 V2000
    1.3417   24.2696    7.6168 Br  0  0  0  0  0  0
   -2.5657   24.9444   11.2158 O   0  0  0  0  0  0
   -1.8813   31.9454    9.1549 O   0  0  0  0  0  0
   -0.7322   25.1401    9.2352 N   0  0  0  0  0  0
   -3.5096   26.9748   10.7348 N   0  0  0  0  0  0
   -0.2993   31.9544    7.4853 N   0  0  0  0  0  0
    0.2708   29.7827    7.5046 N   0  0  0  0  0  0
    1.3320   31.1749    5.9743 N   0  0  0  0  0  0
    0.2523   25.5308    8.4231 C   0  0  0  0  0  0
    0.2893   26.8896    8.3101 C   0  0  0  0  0  0
   -0.7730   27.3851    9.1131 C   0  0  0  0  0  0
   -1.3895   26.2303    9.6864 C   0  0  0  0  0  0
   -2.5260   26.0132   10.5921 C   0  0  0  0  0  0
   -3.6081   28.2871   10.0733 C   0  0  0  0  0  0
   -2.3754   29.1525   10.2627 C   0  0  0  0  0  0
   -1.2687   28.8436    9.2584 C   0  0  0  0  0  0
   -0.7321   29.8758    8.4812 C   0  0  0  0  0  0
   -1.0543   31.3592    8.4393 C   0  0  0  0  0  0
    0.4616   30.9933    6.9488 C   0  0  0  0  0  0
   -0.9450   24.2075    9.4679 H   0  0  0  0  0  0
   -4.2379   26.7536   11.3591 H   0  0  0  0  0  0
    0.7579   28.9616    7.2641 H   0  0  0  0  0  0
    1.4539   32.0703    5.5836 H   0  0  0  0  0  0
    1.8597   30.4149    5.6377 H   0  0  0  0  0  0
  1  9  1  0  0  0
  2 13  2  0  0  0
  3 18  2  0  0  0
  4  9  1  0  0  0
  4 12  1  0  0  0
  4 20  1  0  0  0
  5 13  1  0  0  0
  5 14  1  0  0  0
  5 21  1  0  0  0
  6 18  1  0  0  0
  6 19  2  0  0  0
  7 17  1  0  0  0
  7 19  1  0  0  0
  7 22  1  0  0  0
  8 19  1  0  0  0
  8 23  1  0  0  0
  8 24  1  0  0  0
  9 10  2  0  0  0
 10 11  1  0  0  0
 11 12  2  0  0  0
 11 16  1  0  0  0
 12 13  1  0  0  0
 14 15  1  0  0  0
 15 16  1  0  0  0
 16 17  2  0  0  0
 17 18  1  0  0  0
M  END
>  <CHROM.0>
-71.06384202,115.70866735,-73.98632732,159.14987887,-61.11066012

>  <CHROM.1>
-0.52698545,27.44943599,8.61686420,-1.30818280,0.69209668,-0.19517027

>  <FORMUL>
      HMD    C11 H10 Br1 N5 O2

>  <HET>
 HMD  A 400      19

>  <HETNAM>
     HMD 4-(5-AMINO-4-OXO-4H-PYRAZOL-3-YL)-2-BROMO-4,5,6,7-TETRA
   2 HMD HYDRO-3AH-PYRROLO[2,3-C]AZEPIN-8-ONE

>  <HETSYN>
     HMD HYMENIALDISINE

>  <Name>
HMD.pdb

>  <RI>
0

>  <Rbt.Current_Directory>
/home/malgorzata/Desktop/rDOCK_IFD/Wyniki/2a_CDK2/IFD

>  <Rbt.Executable>
rbdock ($Id: //depot/dev/client3/rdock/2013.1/src/exe/rbdock.cxx#4 $)

>  <Rbt.Library>
libRbt.so (2013.1, Build901 2013/11/27)

>  <Rbt.Parameter_File>
/home/malgorzata/Desktop/rDock_2013.1_src/data/scripts/hard_docking.prm

>  <Rbt.Receptor>
cavity.prm

>  <SCORE>
-12.9203

>  <SCORE.INTER>
-12.6538

>  <SCORE.INTER.CONST>
1

>  <SCORE.INTER.POLAR>
0

>  <SCORE.INTER.REPUL>
0

>  <SCORE.INTER.ROT>
0

>  <SCORE.INTER.VDW>
-18.0538

>  <SCORE.INTER.norm>
-0.665991

>  <SCORE.INTRA>
0

>  <SCORE.INTRA.DIHEDRAL>
0

>  <SCORE.INTRA.DIHEDRAL.0>
0

>  <SCORE.INTRA.POLAR>
0

>  <SCORE.INTRA.POLAR.0>
0

>  <SCORE.INTRA.REPUL>
0

>  <SCORE.INTRA.REPUL.0>
0

>  <SCORE.INTRA.VDW>
0

>  <SCORE.INTRA.VDW.0>
0

>  <SCORE.INTRA.norm>
0

>  <SCORE.RESTR>
0

>  <SCORE.RESTR.CAVITY>
0

>  <SCORE.RESTR.norm>
0

>  <SCORE.SYSTEM>
-0.266517

>  <SCORE.SYSTEM.CONST>
0

>  <SCORE.SYSTEM.DIHEDRAL>
1.63131

>  <SCORE.SYSTEM.VDW>
-1.08217

>  <SCORE.SYSTEM.norm>
-0.0140272

>  <SCORE.heavy>
19

>  <SCORE.norm>
-0.680018

$$$$
HMD.pdb
  rDOCK(R)          3D
libRbt.so/2013.1/901 2013/11/27
 24 26  0  0  0  0  0  0  0  0999 V2000
    1.6265   23.9721    8.6520 Br  0  0  0  0  0  0
    0.2675   28.7332    6.6122 O   0  0  0  0  0  0
   -4.7710   28.4453   11.9282 O   0  0  0  0  0  0
    0.6173   26.4894    8.0838 N   0  0  0  0  0  0
   -0.9707   29.7734    8.2338 N   0  0  0  0  0  0
   -4.3542   26.4988   13.0806 N   0  0  0  0  0  0
   -2.6814   25.6784   11.8275 N   0  0  0  0  0  0
   -3.3651   24.4448   13.6760 N   0  0  0  0  0  0
    0.4434   25.3866    8.8153 C   0  0  0  0  0  0
   -0.6506   25.4970    9.6224 C   0  0  0  0  0  0
   -1.1965   26.7860    9.3793 C   0  0  0  0  0  0
   -0.3556   27.3761    8.3859 C   0  0  0  0  0  0
   -0.3355   28.6710    7.6917 C   0  0  0  0  0  0
   -1.7258   29.8650    9.4951 C   0  0  0  0  0  0
   -2.8457   28.8459    9.6035 C   0  0  0  0  0  0
   -2.3693   27.4862   10.1064 C   0  0  0  0  0  0
   -2.9887   26.9038   11.2175 C   0  0  0  0  0  0
   -4.1338   27.3925   12.0870 C   0  0  0  0  0  0
   -3.4734   25.5074   12.9019 C   0  0  0  0  0  0
    1.3386   26.6333    7.4294 H   0  0  0  0  0  0
   -0.9104   30.6040    7.7089 H   0  0  0  0  0  0
   -1.9950   25.0440   11.5184 H   0  0  0  0  0  0
   -3.9561   24.3421   14.4567 H   0  0  0  0  0  0
   -2.6932   23.7544   13.4731 H   0  0  0  0  0  0
  1  9  1  0  0  0
  2 13  2  0  0  0
  3 18  2  0  0  0
  4  9  1  0  0  0
  4 12  1  0  0  0
  4 20  1  0  0  0
  5 13  1  0  0  0
  5 14  1  0  0  0
  5 21  1  0  0  0
  6 18  1  0  0  0
  6 19  2  0  0  0
  7 17  1  0  0  0
  7 19  1  0  0  0
  7 22  1  0  0  0
  8 19  1  0  0  0
  8 23  1  0  0  0
  8 24  1  0  0  0
  9 10  2  0  0  0
 10 11  1  0  0  0
 11 12  2  0  0  0
 11 16  1  0  0  0
 12 13  1  0  0  0
 14 15  1  0  0  0
 15 16  1  0  0  0
 16 17  2  0  0  0
 17 18  1  0  0  0
M  END
>  <CHROM.0>
-93.29721007,124.03414366,173.42783443,129.08292414,-61.11066012

>  <CHROM.1>
-1.06949283,26.43003933,9.78924372,-0.03017986,-0.70587598,2.59528050

>  <FORMUL>
      HMD    C11 H10 Br1 N5 O2

>  <HET>
 HMD  A 400      19

>  <HETNAM>
     HMD 4-(5-AMINO-4-OXO-4H-PYRAZOL-3-YL)-2-BROMO-4,5,6,7-TETRA
   2 HMD HYDRO-3AH-PYRROLO[2,3-C]AZEPIN-8-ONE

>  <HETSYN>
     HMD HYMENIALDISINE

>  <Name>
HMD.pdb

>  <RI>
0

>  <Rbt.Current_Directory>
/home/malgorzata/Desktop/rDOCK_IFD/Wyniki/2a_CDK2/IFD

>  <Rbt.Executable>
rbdock ($Id: //depot/dev/client3/rdock/2013.1/src/exe/rbdock.cxx#4 $)

>  <Rbt.Library>
libRbt.so (2013.1, Build901 2013/11/27)

>  <Rbt.Parameter_File>
/home/malgorzata/Desktop/rDock_2013.1_src/data/scripts/hard_docking.prm

>  <Rbt.Receptor>
cavity.prm

>  <SCORE>
-12.4874

>  <SCORE.INTER>
-12.167

>  <SCORE.INTER.CONST>
1

>  <SCORE.INTER.POLAR>
-1.18561

>  <SCORE.INTER.REPUL>
0.0403819

>  <SCORE.INTER.ROT>
0

>  <SCORE.INTER.VDW>
-13.7379

>  <SCORE.INTER.norm>
-0.64037

>  <SCORE.INTRA>
0

>  <SCORE.INTRA.DIHEDRAL>
0

>  <SCORE.INTRA.DIHEDRAL.0>
0

>  <SCORE.INTRA.POLAR>
0

>  <SCORE.INTRA.POLAR.0>
0

>  <SCORE.INTRA.REPUL>
0

>  <SCORE.INTRA.REPUL.0>
0

>  <SCORE.INTRA.VDW>
0

>  <SCORE.INTRA.VDW.0>
0

>  <SCORE.INTRA.norm>
0

>  <SCORE.RESTR>
0

>  <SCORE.RESTR.CAVITY>
0

>  <SCORE.RESTR.norm>
0

>  <SCORE.SYSTEM>
-0.320346

>  <SCORE.SYSTEM.CONST>
0

>  <SCORE.SYSTEM.DIHEDRAL>
1.62979

>  <SCORE.SYSTEM.VDW>
-1.13524

>  <SCORE.SYSTEM.norm>
-0.0168603

>  <SCORE.heavy>
19

>  <SCORE.norm>
-0.65723

$$$$
HMD.pdb
  rDOCK(R)          3D
libRbt.so/2013.1/901 2013/11/27
 24 26  0  0  0  0  0  0  0  0999 V2000
    1.1960   20.1760   10.1421 Br  0  0  0  0  0  0
    1.8669   24.4599    6.9998 O   0  0  0  0  0  0
   -2.9352   27.4011   11.6922 O   0  0  0  0  0  0
    1.2778   22.6739    8.9456 N   0  0  0  0  0  0
    1.1246   26.2490    8.2216 N   0  0  0  0  0  0
   -3.3408   25.7788   13.2715 N   0  0  0  0  0  0
   -2.1169   24.1067   12.4065 N   0  0  0  0  0  0
   -3.2572   23.7083   14.3933 N   0  0  0  0  0  0
    0.6708   21.9308    9.8734 C   0  0  0  0  0  0
   -0.2989   22.6410   10.5182 C   0  0  0  0  0  0
   -0.2843   23.9427    9.9489 C   0  0  0  0  0  0
    0.7340   23.9102    8.9468 C   0  0  0  0  0  0
    1.2757   24.8927    7.9978 C   0  0  0  0  0  0
    0.4529   26.9207    9.3472 C   0  0  0  0  0  0
   -0.9811   26.4666    9.5521 C   0  0  0  0  0  0
   -1.0908   25.1903   10.3815 C   0  0  0  0  0  0
   -1.9042   25.1729   11.5197 C   0  0  0  0  0  0
   -2.7712   26.2551   12.1387 C   0  0  0  0  0  0
   -2.9247   24.5138   13.4028 C   0  0  0  0  0  0
    2.0048   22.3699    8.3555 H   0  0  0  0  0  0
    1.5166   26.8421    7.5407 H   0  0  0  0  0  0
   -1.7356   23.2038   12.3144 H   0  0  0  0  0  0
   -3.8499   24.0292   15.1109 H   0  0  0  0  0  0
   -2.9128   22.7863   14.4147 H   0  0  0  0  0  0
  1  9  1  0  0  0
  2 13  2  0  0  0
  3 18  2  0  0  0
  4  9  1  0  0  0
  4 12  1  0  0  0
  4 20  1  0  0  0
  5 13  1  0  0  0
  5 14  1  0  0  0
  5 21  1  0  0  0
  6 18  1  0  0  0
  6 19  2  0  0  0
  7 17  1  0  0  0
  7 19  1  0  0  0
  7 22  1  0  0  0
  8 19  1  0  0  0
  8 23  1  0  0  0
  8 24  1  0  0  0
  9 10  2  0  0  0
 10 11  1  0  0  0
 11 12  2  0  0  0
 11 16  1  0  0  0
 12 13  1  0  0  0
 14 15  1  0  0  0
 15 16  1  0  0  0
 16 17  2  0  0  0
 17 18  1  0  0  0
M  END
>  <CHROM.0>
-93.29635375,120.29501619,-73.48031154,126.40433501,-61.11066012

>  <CHROM.1>
-0.31428073,23.67394615,10.43649364,0.51466958,-0.83968380,2.74345400

>  <FORMUL>
      HMD    C11 H10 Br1 N5 O2

>  <HET>
 HMD  A 400      19

>  <HETNAM>
     HMD 4-(5-AMINO-4-OXO-4H-PYRAZOL-3-YL)-2-BROMO-4,5,6,7-TETRA
   2 HMD HYDRO-3AH-PYRROLO[2,3-C]AZEPIN-8-ONE

>  <HETSYN>
     HMD HYMENIALDISINE

>  <Name>
HMD.pdb

>  <RI>
0

>  <Rbt.Current_Directory>
/home/malgorzata/Desktop/rDOCK_IFD/Wyniki/2a_CDK2/IFD

>  <Rbt.Executable>
rbdock ($Id: //depot/dev/client3/rdock/2013.1/src/exe/rbdock.cxx#4 $)

>  <Rbt.Library>
libRbt.so (2013.1, Build901 2013/11/27)

>  <Rbt.Parameter_File>
/home/malgorzata/Desktop/rDock_2013.1_src/data/scripts/hard_docking.prm

>  <Rbt.Receptor>
cavity.prm

>  <SCORE>
-10.6131

>  <SCORE.INTER>
-10.3374

>  <SCORE.INTER.CONST>
1

>  <SCORE.INTER.POLAR>
-0.848123

>  <SCORE.INTER.REPUL>
0.00824762

>  <SCORE.INTER.ROT>
0

>  <SCORE.INTER.VDW>
-12.895

>  <SCORE.INTER.norm>
-0.544072

>  <SCORE.INTRA>
0

>  <SCORE.INTRA.DIHEDRAL>
0

>  <SCORE.INTRA.DIHEDRAL.0>
0

>  <SCORE.INTRA.POLAR>
0

>  <SCORE.INTRA.POLAR.0>
0

>  <SCORE.INTRA.REPUL>
0

>  <SCORE.INTRA.REPUL.0>
0

>  <SCORE.INTRA.VDW>
0

>  <SCORE.INTRA.VDW.0>
0

>  <SCORE.INTRA.norm>
0

>  <SCORE.RESTR>
0

>  <SCORE.RESTR.CAVITY>
0

>  <SCORE.RESTR.norm>
0

>  <SCORE.SYSTEM>
-0.275706

>  <SCORE.SYSTEM.CONST>
0

>  <SCORE.SYSTEM.DIHEDRAL>
1.63071

>  <SCORE.SYSTEM.VDW>
-1.09106

>  <SCORE.SYSTEM.norm>
-0.0145108

>  <SCORE.heavy>
19

>  <SCORE.norm>
-0.558582

$$$$
HMD.pdb
  rDOCK(R)          3D
libRbt.so/2013.1/901 2013/11/27
 24 26  0  0  0  0  0  0  0  0999 V2000
    0.9355   26.9168   11.4000 Br  0  0  0  0  0  0
   -3.5278   25.2627   13.8533 O   0  0  0  0  0  0
    0.3843   19.1136   14.6370 O   0  0  0  0  0  0
   -1.0392   25.6281   12.8554 N   0  0  0  0  0  0
   -2.9123   23.4459   15.1043 N   0  0  0  0  0  0
    2.4549   19.5715   13.7461 N   0  0  0  0  0  0
    2.0801   21.6523   12.9903 N   0  0  0  0  0  0
    4.1965   20.7425   12.6749 N   0  0  0  0  0  0
    0.1465   25.4800   12.2605 C   0  0  0  0  0  0
    0.6141   24.2065   12.4017 C   0  0  0  0  0  0
   -0.3612   23.5060   13.1612 C   0  0  0  0  0  0
   -1.3981   24.4548   13.4198 C   0  0  0  0  0  0
   -2.6775   24.4100   14.1411 C   0  0  0  0  0  0
   -2.0151   22.3698   15.5586 C   0  0  0  0  0  0
   -1.5122   21.4869   14.4308 C   0  0  0  0  0  0
   -0.2921   22.0643   13.7188 C   0  0  0  0  0  0
    0.8664   21.2899   13.5935 C   0  0  0  0  0  0
    1.1724   19.8767   14.0572 C   0  0  0  0  0  0
    2.9613   20.6447   13.1278 C   0  0  0  0  0  0
   -1.5670   26.4587   12.8789 H   0  0  0  0  0  0
   -3.7928   23.4837   15.5431 H   0  0  0  0  0  0
    2.2587   22.5083   12.5379 H   0  0  0  0  0  0
    4.8230   19.9915   12.7875 H   0  0  0  0  0  0
    4.4917   21.5666   12.2244 H   0  0  0  0  0  0
  1  9  1  0  0  0
  2 13  2  0  0  0
  3 18  2  0  0  0
  4  9  1  0  0  0
  4 12  1  0  0  0
  4 20  1  0  0  0
  5 13  1  0  0  0
  5 14  1  0  0  0
  5 21  1  0  0  0
  6 18  1  0  0  0
  6 19  2  0  0  0
  7 17  1  0  0  0
  7 19  1  0  0  0
  7 22  1  0  0  0
  8 19  1  0  0  0
  8 23  1  0  0  0
  8 24  1  0  0  0
  9 10  2  0  0  0
 10 11  1  0  0  0
 11 12  2  0  0  0
 11 16  1  0  0  0
 12 13  1  0  0  0
 14 15  1  0  0  0
 15 16  1  0  0  0
 16 17  2  0  0  0
 17 18  1  0  0  0
M  END
>  <CHROM.0>
103.12948488,150.94043816,175.98541431,-135.45574710,-61.11066012

>  <CHROM.1>
0.18883078,23.58264846,13.11155421,-1.79605824,-0.41744449,2.74481392

>  <FORMUL>
      HMD    C11 H10 Br1 N5 O2

>  <HET>
 HMD  A 400      19

>  <HETNAM>
     HMD 4-(5-AMINO-4-OXO-4H-PYRAZOL-3-YL)-2-BROMO-4,5,6,7-TETRA
   2 HMD HYDRO-3AH-PYRROLO[2,3-C]AZEPIN-8-ONE

>  <HETSYN>
     HMD HYMENIALDISINE

>  <Name>
HMD.pdb

>  <RI>
0

>  <Rbt.Current_Directory>
/home/malgorzata/Desktop/rDOCK_IFD/Wyniki/2a_CDK2/IFD

>  <Rbt.Executable>
rbdock ($Id: //depot/dev/client3/rdock/2013.1/src/exe/rbdock.cxx#4 $)

>  <Rbt.Library>
libRbt.so (2013.1, Build901 2013/11/27)

>  <Rbt.Parameter_File>
/home/malgorzata/Desktop/rDock_2013.1_src/data/scripts/hard_docking.prm

>  <Rbt.Receptor>
cavity.prm

>  <SCORE>
-13.9588

>  <SCORE.INTER>
-13.6553

>  <SCORE.INTER.CONST>
1

>  <SCORE.INTER.POLAR>
-2.2089

>  <SCORE.INTER.REPUL>
0

>  <SCORE.INTER.ROT>
0

>  <SCORE.INTER.VDW>
-11.5451

>  <SCORE.INTER.norm>
-0.718702

>  <SCORE.INTRA>
0

>  <SCORE.INTRA.DIHEDRAL>
0

>  <SCORE.INTRA.DIHEDRAL.0>
0

>  <SCORE.INTRA.POLAR>
0

>  <SCORE.INTRA.POLAR.0>
0

>  <SCORE.INTRA.REPUL>
0

>  <SCORE.INTRA.REPUL.0>
0

>  <SCORE.INTRA.VDW>
0

>  <SCORE.INTRA.VDW.0>
0

>  <SCORE.INTRA.norm>
0

>  <SCORE.RESTR>
0

>  <SCORE.RESTR.CAVITY>
0

>  <SCORE.RESTR.norm>
0

>  <SCORE.SYSTEM>
-0.303483

>  <SCORE.SYSTEM.CONST>
0

>  <SCORE.SYSTEM.DIHEDRAL>
1.62008

>  <SCORE.SYSTEM.VDW>
-1.11352

>  <SCORE.SYSTEM.norm>
-0.0159728

>  <SCORE.heavy>
19

>  <SCORE.norm>
-0.734674

$$$$
HMD.pdb
  rDOCK(R)          3D
libRbt.so/2013.1/901 2013/11/27
 24 26  0  0  0  0  0  0  0  0999 V2000
    1.9911   23.7683    9.1292 Br  0  0  0  0  0  0
    5.0500   27.7757    7.3236 O   0  0  0  0  0  0
    5.7892   23.2835    1.5787 O   0  0  0  0  0  0
    3.5322   25.5653    7.6892 N   0  0  0  0  0  0
    5.2241   27.4544    5.0628 N   0  0  0  0  0  0
    4.4576   21.4636    2.0320 N   0  0  0  0  0  0
    3.7579   22.0214    4.0913 N   0  0  0  0  0  0
    2.9914   20.0228    3.1835 N   0  0  0  0  0  0
    3.0531   24.3199    7.7167 C   0  0  0  0  0  0
    3.4489   23.6142    6.6186 C   0  0  0  0  0  0
    4.2324   24.5034    5.8349 C   0  0  0  0  0  0
    4.2604   25.7321    6.5640 C   0  0  0  0  0  0
    4.8694   27.0499    6.3368 C   0  0  0  0  0  0
    5.0794   26.7169    3.7960 C   0  0  0  0  0  0
    5.7291   25.3451    3.8187 C   0  0  0  0  0  0
    4.8336   24.2702    4.4283 C   0  0  0  0  0  0
    4.5626   23.1038    3.7049 C   0  0  0  0  0  0
    5.0228   22.6584    2.3280 C   0  0  0  0  0  0
    3.7112   21.1243    3.0894 C   0  0  0  0  0  0
    3.3794   26.2518    8.3781 H   0  0  0  0  0  0
    5.6249   28.3509    4.9936 H   0  0  0  0  0  0
    3.3000   21.9324    4.9583 H   0  0  0  0  0  0
    2.9732   19.3813    2.4369 H   0  0  0  0  0  0
    2.4724   19.8422    4.0004 H   0  0  0  0  0  0
  1  9  1  0  0  0
  2 13  2  0  0  0
  3 18  2  0  0  0
  4  9  1  0  0  0
  4 12  1  0  0  0
  4 20  1  0  0  0
  5 13  1  0  0  0
  5 14  1  0  0  0
  5 21  1  0  0  0
  6 18  1  0  0  0
  6 19  2  0  0  0
  7 17  1  0  0  0
  7 19  1  0  0  0
  7 22  1  0  0  0
  8 19  1  0  0  0
  8 23  1  0  0  0
  8 24  1  0  0  0
  9 10  2  0  0  0
 10 11  1  0  0  0
 11 12  2  0  0  0
 11 16  1  0  0  0
 12 13  1  0  0  0
 14 15  1  0  0  0
 15 16  1  0  0  0
 16 17  2  0  0  0
 17 18  1  0  0  0
M  END
>  <CHROM.0>
-108.10333448,-108.20293424,175.14876969,162.72837172,-61.11066012

>  <CHROM.1>
3.83006671,24.11916687,5.79778962,2.16271140,0.98554316,0.73485457

>  <FORMUL>
      HMD    C11 H10 Br1 N5 O2

>  <HET>
 HMD  A 400      19

>  <HETNAM>
     HMD 4-(5-AMINO-4-OXO-4H-PYRAZOL-3-YL)-2-BROMO-4,5,6,7-TETRA
   2 HMD HYDRO-3AH-PYRROLO[2,3-C]AZEPIN-8-ONE

>  <HETSYN>
     HMD HYMENIALDISINE

>  <Name>
HMD.pdb

>  <RI>
0

>  <Rbt.Current_Directory>
/home/malgorzata/Desktop/rDOCK_IFD/Wyniki/2a_CDK2/IFD

>  <Rbt.Executable>
rbdock ($Id: //depot/dev/client3/rdock/2013.1/src/exe/rbdock.cxx#4 $)

>  <Rbt.Library>
libRbt.so (2013.1, Build901 2013/11/27)

>  <Rbt.Parameter_File>
/home/malgorzata/Desktop/rDock_2013.1_src/data/scripts/hard_docking.prm

>  <Rbt.Receptor>
cavity.prm

>  <SCORE>
-17.08

>  <SCORE.INTER>
-17.4363

>  <SCORE.INTER.CONST>
1

>  <SCORE.INTER.POLAR>
-2.24194

>  <SCORE.INTER.REPUL>
0

>  <SCORE.INTER.ROT>
0

>  <SCORE.INTER.VDW>
-15.2137

>  <SCORE.INTER.norm>
-0.9177

>  <SCORE.INTRA>
0

>  <SCORE.INTRA.DIHEDRAL>
0

>  <SCORE.INTRA.DIHEDRAL.0>
0

>  <SCORE.INTRA.POLAR>
0

>  <SCORE.INTRA.POLAR.0>
0

>  <SCORE.INTRA.REPUL>
0

>  <SCORE.INTRA.REPUL.0>
0

>  <SCORE.INTRA.VDW>
0

>  <SCORE.INTRA.VDW.0>
0

>  <SCORE.INTRA.norm>
0

>  <SCORE.RESTR>
0.697427

>  <SCORE.RESTR.CAVITY>
0.697427

>  <SCORE.RESTR.norm>
0.0367067

>  <SCORE.SYSTEM>
-0.341171

>  <SCORE.SYSTEM.CONST>
0

>  <SCORE.SYSTEM.DIHEDRAL>
1.62706

>  <SCORE.SYSTEM.VDW>
-1.1547

>  <SCORE.SYSTEM.norm>
-0.0179564

>  <SCORE.heavy>
19

>  <SCORE.norm>
-0.89895

$$$$
HMD.pdb
  rDOCK(R)          3D
libRbt.so/2013.1/901 2013/11/27
 24 26  0  0  0  0  0  0  0  0999 V2000
   -4.4728   29.6886   11.2353 Br  0  0  0  0  0  0
   -0.8394   32.1878    8.1974 O   0  0  0  0  0  0
    1.7890   25.3801    7.5071 O   0  0  0  0  0  0
   -2.4569   30.4469    9.4919 N   0  0  0  0  0  0
    0.1329   30.5539    6.9208 N   0  0  0  0  0  0
    0.3256   24.0252    8.6531 N   0  0  0  0  0  0
   -1.0554   25.5899    9.4815 N   0  0  0  0  0  0
   -1.5043   23.3642    9.9822 N   0  0  0  0  0  0
   -2.9533   29.4360   10.2082 C   0  0  0  0  0  0
   -2.2089   28.3045   10.0472 C   0  0  0  0  0  0
   -1.1662   28.6392    9.1420 C   0  0  0  0  0  0
   -1.3650   30.0178    8.8228 C   0  0  0  0  0  0
   -0.6728   30.9843    7.9591 C   0  0  0  0  0  0
    0.4341   29.1720    6.5097 C   0  0  0  0  0  0
    0.9866   28.3147    7.6341 C   0  0  0  0  0  0
   -0.1033   27.7072    8.5128 C   0  0  0  0  0  0
   -0.1308   26.3244    8.7239 C   0  0  0  0  0  0
    0.7831   25.2229    8.2164 C   0  0  0  0  0  0
   -0.7642   24.2795    9.3866 C   0  0  0  0  0  0
   -2.8270   31.3584    9.4569 H   0  0  0  0  0  0
    0.5602   31.2626    6.3877 H   0  0  0  0  0  0
   -1.7994   25.9726   10.0003 H   0  0  0  0  0  0
   -1.2710   22.4114    9.8981 H   0  0  0  0  0  0
   -2.2899   23.6338   10.5107 H   0  0  0  0  0  0
  1  9  1  0  0  0
  2 13  2  0  0  0
  3 18  2  0  0  0
  4  9  1  0  0  0
  4 12  1  0  0  0
  4 20  1  0  0  0
  5 13  1  0  0  0
  5 14  1  0  0  0
  5 21  1  0  0  0
  6 18  1  0  0  0
  6 19  2  0  0  0
  7 17  1  0  0  0
  7 19  1  0  0  0
  7 22  1  0  0  0
  8 19  1  0  0  0
  8 23  1  0  0  0
  8 24  1  0  0  0
  9 10  2  0  0  0
 10 11  1  0  0  0
 11 12  2  0  0  0
 11 16  1  0  0  0
 12 13  1  0  0  0
 14 15  1  0  0  0
 15 16  1  0  0  0
 16 17  2  0  0  0
 17 18  1  0  0  0
M  END
>  <CHROM.0>
-70.94831651,-91.82593226,78.26921050,-123.89805552,-61.11066012

>  <CHROM.1>
-1.53977137,28.24195232,9.25835787,2.44479914,0.66308540,-0.21817840

>  <FORMUL>
      HMD    C11 H10 Br1 N5 O2

>  <HET>
 HMD  A 400      19

>  <HETNAM>
     HMD 4-(5-AMINO-4-OXO-4H-PYRAZOL-3-YL)-2-BROMO-4,5,6,7-TETRA
   2 HMD HYDRO-3AH-PYRROLO[2,3-C]AZEPIN-8-ONE

>  <HETSYN>
     HMD HYMENIALDISINE

>  <Name>
HMD.pdb

>  <RI>
0

>  <Rbt.Current_Directory>
/home/malgorzata/Desktop/rDOCK_IFD/Wyniki/2a_CDK2/IFD

>  <Rbt.Executable>
rbdock ($Id: //depot/dev/client3/rdock/2013.1/src/exe/rbdock.cxx#4 $)

>  <Rbt.Library>
libRbt.so (2013.1, Build901 2013/11/27)

>  <Rbt.Parameter_File>
/home/malgorzata/Desktop/rDock_2013.1_src/data/scripts/hard_docking.prm

>  <Rbt.Receptor>
cavity.prm

>  <SCORE>
-10.7985

>  <SCORE.INTER>
-11.0842

>  <SCORE.INTER.CONST>
1

>  <SCORE.INTER.POLAR>
0

>  <SCORE.INTER.REPUL>
0

>  <SCORE.INTER.ROT>
0

>  <SCORE.INTER.VDW>
-16.4842

>  <SCORE.INTER.norm>
-0.583381

>  <SCORE.INTRA>
0

>  <SCORE.INTRA.DIHEDRAL>
0

>  <SCORE.INTRA.DIHEDRAL.0>
0

>  <SCORE.INTRA.POLAR>
0

>  <SCORE.INTRA.POLAR.0>
0

>  <SCORE.INTRA.REPUL>
0

>  <SCORE.INTRA.REPUL.0>
0

>  <SCORE.INTRA.VDW>
0

>  <SCORE.INTRA.VDW.0>
0

>  <SCORE.INTRA.norm>
0

>  <SCORE.RESTR>
0

>  <SCORE.RESTR.CAVITY>
0

>  <SCORE.RESTR.norm>
0

>  <SCORE.SYSTEM>
0.285764

>  <SCORE.SYSTEM.CONST>
0

>  <SCORE.SYSTEM.DIHEDRAL>
1.62392

>  <SCORE.SYSTEM.VDW>
-0.526194

>  <SCORE.SYSTEM.norm>
0.0150402

>  <SCORE.heavy>
19

>  <SCORE.norm>
-0.568341

$$$$
HMD.pdb
  rDOCK(R)          3D
libRbt.so/2013.1/901 2013/11/27
 24 26  0  0  0  0  0  0  0  0999 V2000
    1.7726   30.6985    6.2892 Br  0  0  0  0  0  0
    5.6469   27.8861    3.8900 O   0  0  0  0  0  0
    4.1430   23.1361    9.2664 O   0  0  0  0  0  0
    3.5817   28.8090    5.3752 N   0  0  0  0  0  0
    5.3965   25.7314    4.6245 N   0  0  0  0  0  0
    2.3867   24.0510   10.4365 N   0  0  0  0  0  0
    2.1890   26.0012    9.3414 N   0  0  0  0  0  0
    0.7190   25.5806   11.0931 N   0  0  0  0  0  0
    2.7467   29.1261    6.3670 C   0  0  0  0  0  0
    2.7462   28.1675    7.3374 C   0  0  0  0  0  0
    3.6511   27.1615    6.9040 C   0  0  0  0  0  0
    4.1620   27.6211    5.6510 C   0  0  0  0  0  0
    5.1139   27.0845    4.6686 C   0  0  0  0  0  0
    4.8546   24.6561    5.4728 C   0  0  0  0  0  0
    5.0405   24.9076    6.9582 C   0  0  0  0  0  0
    3.9482   25.7900    7.5559 C   0  0  0  0  0  0
    3.2292   25.3420    8.6693 C   0  0  0  0  0  0
    3.3317   24.0534    9.4662 C   0  0  0  0  0  0
    1.7261   25.2094   10.3261 C   0  0  0  0  0  0
    3.7479   29.3535    4.5720 H   0  0  0  0  0  0
    6.0432   25.4507    3.9374 H   0  0  0  0  0  0
    1.8511   26.9006    9.1265 H   0  0  0  0  0  0
    0.3982   24.9837   11.8074 H   0  0  0  0  0  0
    0.2884   26.4544   10.9514 H   0  0  0  0  0  0
  1  9  1  0  0  0
  2 13  2  0  0  0
  3 18  2  0  0  0
  4  9  1  0  0  0
  4 12  1  0  0  0
  4 20  1  0  0  0
  5 13  1  0  0  0
  5 14  1  0  0  0
  5 21  1  0  0  0
  6 18  1  0  0  0
  6 19  2  0  0  0
  7 17  1  0  0  0
  7 19  1  0  0  0
  7 22  1  0  0  0
  8 19  1  0  0  0
  8 23  1  0  0  0
  8 24  1  0  0  0
  9 10  2  0  0  0
 10 11  1  0  0  0
 11 12  2  0  0  0
 11 16  1  0  0  0
 12 13  1  0  0  0
 14 15  1  0  0  0
 15 16  1  0  0  0
 16 17  2  0  0  0
 17 18  1  0  0  0
M  END
>  <CHROM.0>
-93.28870670,118.87966663,76.77439993,123.95902445,-61.11066012

>  <CHROM.1>
3.14799768,27.23438845,7.13296413,1.67223048,0.81083949,-0.64020599

>  <FORMUL>
      HMD    C11 H10 Br1 N5 O2

>  <HET>
 HMD  A 400      19

>  <HETNAM>
     HMD 4-(5-AMINO-4-OXO-4H-PYRAZOL-3-YL)-2-BROMO-4,5,6,7-TETRA
   2 HMD HYDRO-3AH-PYRROLO[2,3-C]AZEPIN-8-ONE

>  <HETSYN>
     HMD HYMENIALDISINE

>  <Name>
HMD.pdb

>  <RI>
0

>  <Rbt.Current_Directory>
/home/malgorzata/Desktop/rDOCK_IFD/Wyniki/2a_CDK2/IFD

>  <Rbt.Executable>
rbdock ($Id: //depot/dev/client3/rdock/2013.1/src/exe/rbdock.cxx#4 $)

>  <Rbt.Library>
libRbt.so (2013.1, Build901 2013/11/27)

>  <Rbt.Parameter_File>
/home/malgorzata/Desktop/rDock_2013.1_src/data/scripts/hard_docking.prm

>  <Rbt.Receptor>
cavity.prm

>  <SCORE>
-11.6971

>  <SCORE.INTER>
-12.019

>  <SCORE.INTER.CONST>
1

>  <SCORE.INTER.POLAR>
-0.113715

>  <SCORE.INTER.REPUL>
0

>  <SCORE.INTER.ROT>
0

>  <SCORE.INTER.VDW>
-17.0324

>  <SCORE.INTER.norm>
-0.632579

>  <SCORE.INTRA>
0

>  <SCORE.INTRA.DIHEDRAL>
0

>  <SCORE.INTRA.DIHEDRAL.0>
0

>  <SCORE.INTRA.POLAR>
0

>  <SCORE.INTRA.POLAR.0>
0

>  <SCORE.INTRA.REPUL>
0

>  <SCORE.INTRA.REPUL.0>
0

>  <SCORE.INTRA.VDW>
0

>  <SCORE.INTRA.VDW.0>
0

>  <SCORE.INTRA.norm>
0

>  <SCORE.RESTR>
0

>  <SCORE.RESTR.CAVITY>
0

>  <SCORE.RESTR.norm>
0

>  <SCORE.SYSTEM>
0.321939

>  <SCORE.SYSTEM.CONST>
0

>  <SCORE.SYSTEM.DIHEDRAL>
1.63111

>  <SCORE.SYSTEM.VDW>
-0.493614

>  <SCORE.SYSTEM.norm>
0.0169442

>  <SCORE.heavy>
19

>  <SCORE.norm>
-0.615635

$$$$
