FLP.pdb
  rDOCK(R)          3D
libRbt.so/2013.1/901 2013/11/27
 19 20  0  0  0  0  0  0  0  0999 V2000
   23.2118   23.4146   11.0496 C   0  0  0  0  0  0
   23.4946   22.8620   12.3182 C   0  0  0  0  0  0
   24.6438   23.2450   13.0024 C   0  0  0  0  0  0
   25.5051   24.1763   12.4197 C   0  0  0  0  0  0
   25.2158   24.7235   11.1550 C   0  0  0  0  0  0
   24.0662   24.3383   10.4731 C   0  0  0  0  0  0
   24.9808   22.6386   14.3479 C   0  0  0  0  0  0
   26.3227   22.4123   14.7394 C   0  0  0  0  0  0
   26.6047   21.8581   16.0253 C   0  0  0  0  0  0
   25.5161   21.5364   16.9072 C   0  0  0  0  0  0
   24.2055   21.7717   16.5096 C   0  0  0  0  0  0
   23.9283   22.3102   15.2491 C   0  0  0  0  0  0
   25.7564   20.8544   18.2384 C   0  0  0  0  0  0
   26.6832   21.6950   19.1135 C   0  0  0  0  0  0
   26.3833   19.4883   17.9620 C   0  0  0  0  0  0
   27.5661   19.3942   17.7450 O   0  0  0  0  0  0
   25.6445   18.4110   17.9262 O   0  0  0  0  0  0
   22.6323   22.5033   14.8862 F   0  0  0  0  0  0
   25.9245   17.6671   17.4299 H   0  0  0  0  0  0
  1  2  2  0  0  0
  2  3  1  0  0  0
  3  7  1  0  0  0
  4  3  2  0  0  0
  5  4  1  0  0  0
  6  5  2  0  0  0
  6  1  1  0  0  0
  7  8  2  0  0  0
  7 12  1  0  0  0
  8  9  1  0  0  0
  9 10  2  0  0  0
 10 13  1  0  0  0
 11 10  1  0  0  0
 12 11  2  0  0  0
 13 14  1  0  0  0
 15 17  1  0  0  0
 15 13  1  0  0  0
 16 15  2  0  0  0
 17 19  1  0  0  0
 18 12  1  0  0  0
M  END
>  <CHROM.0>
-9.12917260,-63.68993106,63.09825296,-105.07730636,-154.97354754,-52.49187060
36.38299293

>  <CHROM.1>
146.03960308,58.80664789,154.61212278,81.38055916,25.12291790,22.00658981
15.10382531,1.85980950,-0.12526084,-0.99479359

>  <FORMUL>
      FLP    C15 H13 F1 O2

>  <HET>
 FLP  A 701      18

>  <HETNAM>
     FLP FLURBIPROFEN

>  <Name>
FLP.pdb

>  <RI>
0

>  <Rbt.Current_Directory>
/home/malgorzata/Desktop/rDOCK_IFD/Wyniki/4c_COX2

>  <Rbt.Executable>
rbdock ($Id: //depot/dev/client3/rdock/2013.1/src/exe/rbdock.cxx#4 $)

>  <Rbt.Library>
libRbt.so (2013.1, Build901 2013/11/27)

>  <Rbt.Parameter_File>
/home/malgorzata/Desktop/rDock_2013.1_src/data/scripts/soft_docking.prm

>  <Rbt.Receptor>
cavity.prm

>  <SCORE>
-30.429

>  <SCORE.INTER>
-22.0071

>  <SCORE.INTER.CONST>
1

>  <SCORE.INTER.POLAR>
-0.791057

>  <SCORE.INTER.REPUL>
0.036201

>  <SCORE.INTER.ROT>
3

>  <SCORE.INTER.VDW>
-27.8986

>  <SCORE.INTER.norm>
-1.22262

>  <SCORE.INTRA>
-0.0314735

>  <SCORE.INTRA.DIHEDRAL>
2.75675

>  <SCORE.INTRA.DIHEDRAL.0>
5.47211

>  <SCORE.INTRA.POLAR>
0

>  <SCORE.INTRA.POLAR.0>
0

>  <SCORE.INTRA.REPUL>
0

>  <SCORE.INTRA.REPUL.0>
0

>  <SCORE.INTRA.VDW>
-0.582823

>  <SCORE.INTRA.VDW.0>
0.722234

>  <SCORE.INTRA.norm>
-0.00174853

>  <SCORE.RESTR>
0

>  <SCORE.RESTR.CAVITY>
0

>  <SCORE.RESTR.norm>
0

>  <SCORE.SYSTEM>
-8.39035

>  <SCORE.SYSTEM.CONST>
0

>  <SCORE.SYSTEM.DIHEDRAL>
7.84836

>  <SCORE.SYSTEM.POLAR>
-3.00879

>  <SCORE.SYSTEM.REPUL>
0.661016

>  <SCORE.SYSTEM.VDW>
-5.38973

>  <SCORE.SYSTEM.norm>
-0.466131

>  <SCORE.heavy>
18

>  <SCORE.norm>
-1.6905

$$$$
FLP.pdb
  rDOCK(R)          3D
libRbt.so/2013.1/901 2013/11/27
 19 20  0  0  0  0  0  0  0  0999 V2000
   29.7143   20.2682   18.1841 C   0  0  0  0  0  0
   29.3272   21.1187   17.1250 C   0  0  0  0  0  0
   28.0689   21.7119   17.1347 C   0  0  0  0  0  0
   27.2028   21.4552   18.1990 C   0  0  0  0  0  0
   27.5964   20.6069   19.2517 C   0  0  0  0  0  0
   28.8551   20.0148   19.2391 C   0  0  0  0  0  0
   27.6236   22.5994   15.9921 C   0  0  0  0  0  0
   28.5537   23.3635   15.2462 C   0  0  0  0  0  0
   28.1006   24.1737   14.1607 C   0  0  0  0  0  0
   26.6995   24.2016   13.8402 C   0  0  0  0  0  0
   25.8016   23.4401   14.5782 C   0  0  0  0  0  0
   26.2437   22.6498   15.6439 C   0  0  0  0  0  0
   26.1559   25.1206   12.7655 C   0  0  0  0  0  0
   26.7948   24.8053   11.4151 C   0  0  0  0  0  0
   26.4651   26.5601   13.1751 C   0  0  0  0  0  0
   25.6007   27.2583   13.6445 O   0  0  0  0  0  0
   27.6578   27.0628   12.9944 O   0  0  0  0  0  0
   25.3320   21.9377   16.3581 F   0  0  0  0  0  0
   27.7846   27.9907   13.0246 H   0  0  0  0  0  0
  1  2  2  0  0  0
  2  3  1  0  0  0
  3  7  1  0  0  0
  4  3  2  0  0  0
  5  4  1  0  0  0
  6  5  2  0  0  0
  6  1  1  0  0  0
  7  8  2  0  0  0
  7 12  1  0  0  0
  8  9  1  0  0  0
  9 10  2  0  0  0
 10 13  1  0  0  0
 11 10  1  0  0  0
 12 11  2  0  0  0
 13 14  1  0  0  0
 15 17  1  0  0  0
 15 13  1  0  0  0
 16 15  2  0  0  0
 17 19  1  0  0  0
 18 12  1  0  0  0
M  END
>  <CHROM.0>
-16.47677684,59.83545312,12.30746727,-168.36404205,-168.78931397,76.23613608
63.67515413

>  <CHROM.1>
-30.30420155,60.18248572,163.37230950,-102.41285975,27.26004985,23.33156414
15.42813048,-1.34764188,0.01788944,-0.79318208

>  <FORMUL>
      FLP    C15 H13 F1 O2

>  <HET>
 FLP  A 701      18

>  <HETNAM>
     FLP FLURBIPROFEN

>  <Name>
FLP.pdb

>  <RI>
0

>  <Rbt.Current_Directory>
/home/malgorzata/Desktop/rDOCK_IFD/Wyniki/4c_COX2

>  <Rbt.Executable>
rbdock ($Id: //depot/dev/client3/rdock/2013.1/src/exe/rbdock.cxx#4 $)

>  <Rbt.Library>
libRbt.so (2013.1, Build901 2013/11/27)

>  <Rbt.Parameter_File>
/home/malgorzata/Desktop/rDock_2013.1_src/data/scripts/soft_docking.prm

>  <Rbt.Receptor>
cavity.prm

>  <SCORE>
-29.164

>  <SCORE.INTER>
-17.925

>  <SCORE.INTER.CONST>
1

>  <SCORE.INTER.POLAR>
-0.48687

>  <SCORE.INTER.REPUL>
0.00325726

>  <SCORE.INTER.ROT>
3

>  <SCORE.INTER.VDW>
-24.6859

>  <SCORE.INTER.norm>
-0.995834

>  <SCORE.INTRA>
-0.816257

>  <SCORE.INTRA.DIHEDRAL>
-0.702816

>  <SCORE.INTRA.DIHEDRAL.0>
5.47211

>  <SCORE.INTRA.POLAR>
0

>  <SCORE.INTRA.POLAR.0>
0

>  <SCORE.INTRA.REPUL>
0

>  <SCORE.INTRA.REPUL.0>
0

>  <SCORE.INTRA.VDW>
-0.675693

>  <SCORE.INTRA.VDW.0>
0.722234

>  <SCORE.INTRA.norm>
-0.0453476

>  <SCORE.RESTR>
0

>  <SCORE.RESTR.CAVITY>
0

>  <SCORE.RESTR.norm>
0

>  <SCORE.SYSTEM>
-10.4228

>  <SCORE.SYSTEM.CONST>
0

>  <SCORE.SYSTEM.DIHEDRAL>
2.42768

>  <SCORE.SYSTEM.POLAR>
-2.87205

>  <SCORE.SYSTEM.REPUL>
0.64611

>  <SCORE.SYSTEM.VDW>
-5.10219

>  <SCORE.SYSTEM.norm>
-0.579042

>  <SCORE.heavy>
18

>  <SCORE.norm>
-1.62022

$$$$
FLP.pdb
  rDOCK(R)          3D
libRbt.so/2013.1/901 2013/11/27
 19 20  0  0  0  0  0  0  0  0999 V2000
   18.2596   21.1121   17.7116 C   0  0  0  0  0  0
   19.6564   21.0699   17.9169 C   0  0  0  0  0  0
   20.5222   21.2416   16.8416 C   0  0  0  0  0  0
   19.9926   21.4544   15.5677 C   0  0  0  0  0  0
   18.5989   21.4962   15.3711 C   0  0  0  0  0  0
   17.7356   21.3238   16.4482 C   0  0  0  0  0  0
   22.0215   21.1661   17.0365 C   0  0  0  0  0  0
   22.9008   22.0234   16.3316 C   0  0  0  0  0  0
   24.3088   21.9390   16.5563 C   0  0  0  0  0  0
   24.8148   20.9795   17.4996 C   0  0  0  0  0  0
   23.9370   20.1507   18.1878 C   0  0  0  0  0  0
   22.5586   20.2297   17.9653 C   0  0  0  0  0  0
   26.3033   20.7809   17.6990 C   0  0  0  0  0  0
   26.9387   20.1841   16.4454 C   0  0  0  0  0  0
   26.4987   19.8433   18.8900 C   0  0  0  0  0  0
   26.9043   20.2721   19.9419 O   0  0  0  0  0  0
   26.2596   18.5635   18.7768 O   0  0  0  0  0  0
   21.7334   19.3854   18.6396 F   0  0  0  0  0  0
   26.0822   18.0507   19.5407 H   0  0  0  0  0  0
  1  2  2  0  0  0
  2  3  1  0  0  0
  3  7  1  0  0  0
  4  3  2  0  0  0
  5  4  1  0  0  0
  6  5  2  0  0  0
  6  1  1  0  0  0
  7  8  2  0  0  0
  7 12  1  0  0  0
  8  9  1  0  0  0
  9 10  2  0  0  0
 10 13  1  0  0  0
 11 10  1  0  0  0
 12 11  2  0  0  0
 13 14  1  0  0  0
 15 17  1  0  0  0
 15 13  1  0  0  0
 16 15  2  0  0  0
 17 19  1  0  0  0
 18 12  1  0  0  0
M  END
>  <CHROM.0>
17.80345974,-74.30629423,-156.85674034,116.53070787,-7.21822611,-57.90606201
51.30441168

>  <CHROM.1>
-142.20773157,-66.85138680,-158.24408345,-107.20927120,22.87967012,20.65431816
17.50745404,2.86073076,0.01436415,-0.98963116

>  <FORMUL>
      FLP    C15 H13 F1 O2

>  <HET>
 FLP  A 701      18

>  <HETNAM>
     FLP FLURBIPROFEN

>  <Name>
FLP.pdb

>  <RI>
0

>  <Rbt.Current_Directory>
/home/malgorzata/Desktop/rDOCK_IFD/Wyniki/4c_COX2

>  <Rbt.Executable>
rbdock ($Id: //depot/dev/client3/rdock/2013.1/src/exe/rbdock.cxx#4 $)

>  <Rbt.Library>
libRbt.so (2013.1, Build901 2013/11/27)

>  <Rbt.Parameter_File>
/home/malgorzata/Desktop/rDock_2013.1_src/data/scripts/soft_docking.prm

>  <Rbt.Receptor>
cavity.prm

>  <SCORE>
-29.73

>  <SCORE.INTER>
-21.0638

>  <SCORE.INTER.CONST>
1

>  <SCORE.INTER.POLAR>
-0.88989

>  <SCORE.INTER.REPUL>
0

>  <SCORE.INTER.ROT>
3

>  <SCORE.INTER.VDW>
-26.4382

>  <SCORE.INTER.norm>
-1.17021

>  <SCORE.INTRA>
0.661533

>  <SCORE.INTRA.DIHEDRAL>
1.47173

>  <SCORE.INTRA.DIHEDRAL.0>
5.47211

>  <SCORE.INTRA.POLAR>
0

>  <SCORE.INTRA.POLAR.0>
0

>  <SCORE.INTRA.REPUL>
0

>  <SCORE.INTRA.REPUL.0>
0

>  <SCORE.INTRA.VDW>
0.367186

>  <SCORE.INTRA.VDW.0>
0.722234

>  <SCORE.INTRA.norm>
0.0367518

>  <SCORE.RESTR>
0

>  <SCORE.RESTR.CAVITY>
0

>  <SCORE.RESTR.norm>
0

>  <SCORE.SYSTEM>
-9.32766

>  <SCORE.SYSTEM.CONST>
0

>  <SCORE.SYSTEM.DIHEDRAL>
2.91368

>  <SCORE.SYSTEM.POLAR>
-2.74095

>  <SCORE.SYSTEM.REPUL>
0.749704

>  <SCORE.SYSTEM.VDW>
-5.21379

>  <SCORE.SYSTEM.norm>
-0.518203

>  <SCORE.heavy>
18

>  <SCORE.norm>
-1.65166

$$$$
FLP.pdb
  rDOCK(R)          3D
libRbt.so/2013.1/901 2013/11/27
 19 20  0  0  0  0  0  0  0  0999 V2000
   25.9493   22.8584   12.7656 C   0  0  0  0  0  0
   25.1203   22.4400   13.8298 C   0  0  0  0  0  0
   23.8552   22.9973   13.9854 C   0  0  0  0  0  0
   23.4223   23.9680   13.0804 C   0  0  0  0  0  0
   24.2542   24.3792   12.0214 C   0  0  0  0  0  0
   25.5189   23.8204   11.8686 C   0  0  0  0  0  0
   22.9657   22.5860   15.1392 C   0  0  0  0  0  0
   21.5729   22.3987   14.9662 C   0  0  0  0  0  0
   20.7673   21.9897   16.0725 C   0  0  0  0  0  0
   21.3860   21.7734   17.3519 C   0  0  0  0  0  0
   22.7555   21.9551   17.5021 C   0  0  0  0  0  0
   23.5443   22.3598   16.4206 C   0  0  0  0  0  0
   20.5623   21.4378   18.5782 C   0  0  0  0  0  0
   20.1255   19.9750   18.5484 C   0  0  0  0  0  0
   19.3404   22.3556   18.5912 C   0  0  0  0  0  0
   18.4094   22.1400   17.8551 O   0  0  0  0  0  0
   19.3003   23.4008   19.3746 O   0  0  0  0  0  0
   24.8767   22.5508   16.6126 F   0  0  0  0  0  0
   20.0738   23.6790   19.8245 H   0  0  0  0  0  0
  1  2  2  0  0  0
  2  3  1  0  0  0
  3  7  1  0  0  0
  4  3  2  0  0  0
  5  4  1  0  0  0
  6  5  2  0  0  0
  6  1  1  0  0  0
  7  8  2  0  0  0
  7 12  1  0  0  0
  8  9  1  0  0  0
  9 10  2  0  0  0
 10 13  1  0  0  0
 11 10  1  0  0  0
 12 11  2  0  0  0
 13 14  1  0  0  0
 15 17  1  0  0  0
 15 13  1  0  0  0
 16 15  2  0  0  0
 17 19  1  0  0  0
 18 12  1  0  0  0
M  END
>  <CHROM.0>
18.52637782,-42.74879491,41.73753652,-13.41685878,-15.60171181,-62.39538004
43.04088861

>  <CHROM.1>
-139.95902991,77.04571744,10.48874276,76.59582737,22.37754502,22.51420920
15.92635709,-0.80845589,-0.19157060,2.01296860

>  <FORMUL>
      FLP    C15 H13 F1 O2

>  <HET>
 FLP  A 701      18

>  <HETNAM>
     FLP FLURBIPROFEN

>  <Name>
FLP.pdb

>  <RI>
0

>  <Rbt.Current_Directory>
/home/malgorzata/Desktop/rDOCK_IFD/Wyniki/4c_COX2

>  <Rbt.Executable>
rbdock ($Id: //depot/dev/client3/rdock/2013.1/src/exe/rbdock.cxx#4 $)

>  <Rbt.Library>
libRbt.so (2013.1, Build901 2013/11/27)

>  <Rbt.Parameter_File>
/home/malgorzata/Desktop/rDock_2013.1_src/data/scripts/soft_docking.prm

>  <Rbt.Receptor>
cavity.prm

>  <SCORE>
-27.8903

>  <SCORE.INTER>
-17.125

>  <SCORE.INTER.CONST>
1

>  <SCORE.INTER.POLAR>
-0.821791

>  <SCORE.INTER.REPUL>
0

>  <SCORE.INTER.ROT>
3

>  <SCORE.INTER.VDW>
-22.7309

>  <SCORE.INTER.norm>
-0.951389

>  <SCORE.INTRA>
-0.862498

>  <SCORE.INTRA.DIHEDRAL>
0.247086

>  <SCORE.INTRA.DIHEDRAL.0>
5.47211

>  <SCORE.INTRA.POLAR>
0

>  <SCORE.INTRA.POLAR.0>
0

>  <SCORE.INTRA.REPUL>
0

>  <SCORE.INTRA.REPUL.0>
0

>  <SCORE.INTRA.VDW>
-0.911915

>  <SCORE.INTRA.VDW.0>
0.722234

>  <SCORE.INTRA.norm>
-0.0479165

>  <SCORE.RESTR>
0

>  <SCORE.RESTR.CAVITY>
0

>  <SCORE.RESTR.norm>
0

>  <SCORE.SYSTEM>
-9.90284

>  <SCORE.SYSTEM.CONST>
0

>  <SCORE.SYSTEM.DIHEDRAL>
5.94149

>  <SCORE.SYSTEM.POLAR>
-3.25876

>  <SCORE.SYSTEM.REPUL>
0.64611

>  <SCORE.SYSTEM.VDW>
-5.02435

>  <SCORE.SYSTEM.norm>
-0.550158

>  <SCORE.heavy>
18

>  <SCORE.norm>
-1.54946

$$$$
FLP.pdb
  rDOCK(R)          3D
libRbt.so/2013.1/901 2013/11/27
 19 20  0  0  0  0  0  0  0  0999 V2000
   26.1774   19.0953   16.6418 C   0  0  0  0  0  0
   24.8311   19.5194   16.6922 C   0  0  0  0  0  0
   24.5323   20.8553   16.9402 C   0  0  0  0  0  0
   25.5757   21.7617   17.1365 C   0  0  0  0  0  0
   26.9153   21.3315   17.0837 C   0  0  0  0  0  0
   27.2110   19.9949   16.8359 C   0  0  0  0  0  0
   23.0952   21.3221   17.0313 C   0  0  0  0  0  0
   22.7133   22.6194   16.6115 C   0  0  0  0  0  0
   21.3443   23.0189   16.6920 C   0  0  0  0  0  0
   20.3696   22.0929   17.2008 C   0  0  0  0  0  0
   20.7609   20.8211   17.6017 C   0  0  0  0  0  0
   22.1016   20.4307   17.5274 C   0  0  0  0  0  0
   18.9246   22.5014   17.4007 C   0  0  0  0  0  0
   18.3999   21.9841   18.7380 C   0  0  0  0  0  0
   18.1062   21.9189   16.2490 C   0  0  0  0  0  0
   18.1173   22.4488   15.1655 O   0  0  0  0  0  0
   17.3611   20.8605   16.4295 O   0  0  0  0  0  0
   22.4497   19.1868   17.9520 F   0  0  0  0  0  0
   16.8593   20.5139   15.7181 H   0  0  0  0  0  0
  1  2  2  0  0  0
  2  3  1  0  0  0
  3  7  1  0  0  0
  4  3  2  0  0  0
  5  4  1  0  0  0
  6  5  2  0  0  0
  6  1  1  0  0  0
  7  8  2  0  0  0
  7 12  1  0  0  0
  8  9  1  0  0  0
  9 10  2  0  0  0
 10 13  1  0  0  0
 11 10  1  0  0  0
 12 11  2  0  0  0
 13 14  1  0  0  0
 15 17  1  0  0  0
 15 13  1  0  0  0
 16 15  2  0  0  0
 17 19  1  0  0  0
 18 12  1  0  0  0
M  END
>  <CHROM.0>
7.30664755,47.61512174,11.08934324,-80.46624713,-133.64599501,-72.18135564
54.71903454

>  <CHROM.1>
-147.48261229,-136.32402744,179.65786504,-78.44325112,22.02267440,21.17163185
16.99947104,0.19898290,-0.03339658,2.85358767

>  <FORMUL>
      FLP    C15 H13 F1 O2

>  <HET>
 FLP  A 701      18

>  <HETNAM>
     FLP FLURBIPROFEN

>  <Name>
FLP.pdb

>  <RI>
0

>  <Rbt.Current_Directory>
/home/malgorzata/Desktop/rDOCK_IFD/Wyniki/4c_COX2

>  <Rbt.Executable>
rbdock ($Id: //depot/dev/client3/rdock/2013.1/src/exe/rbdock.cxx#4 $)

>  <Rbt.Library>
libRbt.so (2013.1, Build901 2013/11/27)

>  <Rbt.Parameter_File>
/home/malgorzata/Desktop/rDock_2013.1_src/data/scripts/soft_docking.prm

>  <Rbt.Receptor>
cavity.prm

>  <SCORE>
-29.35

>  <SCORE.INTER>
-21.3952

>  <SCORE.INTER.CONST>
1

>  <SCORE.INTER.POLAR>
-0.925578

>  <SCORE.INTER.REPUL>
0

>  <SCORE.INTER.ROT>
3

>  <SCORE.INTER.VDW>
-26.6482

>  <SCORE.INTER.norm>
-1.18862

>  <SCORE.INTRA>
0.797908

>  <SCORE.INTRA.DIHEDRAL>
-1.34017

>  <SCORE.INTRA.DIHEDRAL.0>
5.47211

>  <SCORE.INTRA.POLAR>
0

>  <SCORE.INTRA.POLAR.0>
0

>  <SCORE.INTRA.REPUL>
0

>  <SCORE.INTRA.REPUL.0>
0

>  <SCORE.INTRA.VDW>
1.06594

>  <SCORE.INTRA.VDW.0>
0.722234

>  <SCORE.INTRA.norm>
0.0443282

>  <SCORE.RESTR>
0.497566

>  <SCORE.RESTR.CAVITY>
0.497566

>  <SCORE.RESTR.norm>
0.0276425

>  <SCORE.SYSTEM>
-9.25032

>  <SCORE.SYSTEM.CONST>
0

>  <SCORE.SYSTEM.DIHEDRAL>
4.66841

>  <SCORE.SYSTEM.POLAR>
-3.46796

>  <SCORE.SYSTEM.REPUL>
1.09639

>  <SCORE.SYSTEM.VDW>
-5.27541

>  <SCORE.SYSTEM.norm>
-0.513907

>  <SCORE.heavy>
18

>  <SCORE.norm>
-1.63056

$$$$
FLP.pdb
  rDOCK(R)          3D
libRbt.so/2013.1/901 2013/11/27
 19 20  0  0  0  0  0  0  0  0999 V2000
   25.3510   17.3897   17.2472 C   0  0  0  0  0  0
   24.2100   18.2005   17.0585 C   0  0  0  0  0  0
   23.1441   18.1179   17.9487 C   0  0  0  0  0  0
   23.2201   17.2285   19.0220 C   0  0  0  0  0  0
   24.3614   16.4242   19.2039 C   0  0  0  0  0  0
   25.4255   16.5087   18.3119 C   0  0  0  0  0  0
   21.8991   18.9544   17.7439 C   0  0  0  0  0  0
   20.8801   18.5525   16.8466 C   0  0  0  0  0  0
   19.7090   19.3559   16.6942 C   0  0  0  0  0  0
   19.5818   20.5669   17.4582 C   0  0  0  0  0  0
   20.5884   20.9426   18.3396 C   0  0  0  0  0  0
   21.7373   20.1589   18.4861 C   0  0  0  0  0  0
   18.4084   21.5041   17.2589 C   0  0  0  0  0  0
   18.8259   22.7206   16.4360 C   0  0  0  0  0  0
   17.9142   21.9409   18.6374 C   0  0  0  0  0  0
   18.3984   21.4675   19.6357 O   0  0  0  0  0  0
   16.9425   22.8070   18.7534 O   0  0  0  0  0  0
   22.7114   20.5719   19.3400 F   0  0  0  0  0  0
   16.7582   23.1957   19.5859 H   0  0  0  0  0  0
  1  2  2  0  0  0
  2  3  1  0  0  0
  3  7  1  0  0  0
  4  3  2  0  0  0
  5  4  1  0  0  0
  6  5  2  0  0  0
  6  1  1  0  0  0
  7  8  2  0  0  0
  7 12  1  0  0  0
  8  9  1  0  0  0
  9 10  2  0  0  0
 10 13  1  0  0  0
 11 10  1  0  0  0
 12 11  2  0  0  0
 13 14  1  0  0  0
 15 17  1  0  0  0
 15 13  1  0  0  0
 16 15  2  0  0  0
 17 19  1  0  0  0
 18 12  1  0  0  0
M  END
>  <CHROM.0>
15.18751753,57.31636582,-89.94574175,-29.77299381,-166.92566985,-62.14272726
54.72339924

>  <CHROM.1>
81.90878972,-102.83671055,-167.96630603,-4.85624120,21.21110862,19.75179555
18.07696506,0.13976675,0.63217890,-1.80964678

>  <FORMUL>
      FLP    C15 H13 F1 O2

>  <HET>
 FLP  A 701      18

>  <HETNAM>
     FLP FLURBIPROFEN

>  <Name>
FLP.pdb

>  <RI>
0

>  <Rbt.Current_Directory>
/home/malgorzata/Desktop/rDOCK_IFD/Wyniki/4c_COX2

>  <Rbt.Executable>
rbdock ($Id: //depot/dev/client3/rdock/2013.1/src/exe/rbdock.cxx#4 $)

>  <Rbt.Library>
libRbt.so (2013.1, Build901 2013/11/27)

>  <Rbt.Parameter_File>
/home/malgorzata/Desktop/rDock_2013.1_src/data/scripts/soft_docking.prm

>  <Rbt.Receptor>
cavity.prm

>  <SCORE>
-26.6908

>  <SCORE.INTER>
-17.4834

>  <SCORE.INTER.CONST>
1

>  <SCORE.INTER.POLAR>
-0.314448

>  <SCORE.INTER.REPUL>
0.167335

>  <SCORE.INTER.ROT>
3

>  <SCORE.INTER.VDW>
-25.651

>  <SCORE.INTER.norm>
-0.971301

>  <SCORE.INTRA>
0.349239

>  <SCORE.INTRA.DIHEDRAL>
1.97938

>  <SCORE.INTRA.DIHEDRAL.0>
5.47211

>  <SCORE.INTRA.POLAR>
0

>  <SCORE.INTRA.POLAR.0>
0

>  <SCORE.INTRA.REPUL>
0

>  <SCORE.INTRA.REPUL.0>
0

>  <SCORE.INTRA.VDW>
-0.0466376

>  <SCORE.INTRA.VDW.0>
0.722234

>  <SCORE.INTRA.norm>
0.0194022

>  <SCORE.RESTR>
0

>  <SCORE.RESTR.CAVITY>
0

>  <SCORE.RESTR.norm>
0

>  <SCORE.SYSTEM>
-9.55659

>  <SCORE.SYSTEM.CONST>
0

>  <SCORE.SYSTEM.DIHEDRAL>
5.89907

>  <SCORE.SYSTEM.POLAR>
-2.8946

>  <SCORE.SYSTEM.REPUL>
0.64611

>  <SCORE.SYSTEM.VDW>
-5.89505

>  <SCORE.SYSTEM.norm>
-0.530922

>  <SCORE.heavy>
18

>  <SCORE.norm>
-1.48282

$$$$
FLP.pdb
  rDOCK(R)          3D
libRbt.so/2013.1/901 2013/11/27
 19 20  0  0  0  0  0  0  0  0999 V2000
   23.3913   23.8030   10.3239 C   0  0  0  0  0  0
   23.4424   23.0894   11.5417 C   0  0  0  0  0  0
   24.6252   23.0468   12.2728 C   0  0  0  0  0  0
   25.7506   23.7152   11.7875 C   0  0  0  0  0  0
   25.6915   24.4253   10.5731 C   0  0  0  0  0  0
   24.5074   24.4657    9.8440 C   0  0  0  0  0  0
   24.7088   22.2594   13.5630 C   0  0  0  0  0  0
   25.5268   21.1089   13.6731 C   0  0  0  0  0  0
   25.5979   20.4025   14.9125 C   0  0  0  0  0  0
   24.8336   20.8727   16.0355 C   0  0  0  0  0  0
   24.0414   22.0077   15.9118 C   0  0  0  0  0  0
   23.9678   22.6974   14.6975 C   0  0  0  0  0  0
   24.7955   20.1030   17.3397 C   0  0  0  0  0  0
   26.1722   20.0960   18.0000 C   0  0  0  0  0  0
   24.3483   18.6745   17.0315 C   0  0  0  0  0  0
   23.3099   18.2524   17.4772 O   0  0  0  0  0  0
   25.0965   17.8831   16.3092 O   0  0  0  0  0  0
   23.1628   23.7894   14.6083 F   0  0  0  0  0  0
   24.7475   17.0768   15.9835 H   0  0  0  0  0  0
  1  2  2  0  0  0
  2  3  1  0  0  0
  3  7  1  0  0  0
  4  3  2  0  0  0
  5  4  1  0  0  0
  6  5  2  0  0  0
  6  1  1  0  0  0
  7  8  2  0  0  0
  7 12  1  0  0  0
  8  9  1  0  0  0
  9 10  2  0  0  0
 10 13  1  0  0  0
 11 10  1  0  0  0
 12 11  2  0  0  0
 13 14  1  0  0  0
 15 17  1  0  0  0
 15 13  1  0  0  0
 16 15  2  0  0  0
 17 19  1  0  0  0
 18 12  1  0  0  0
M  END
>  <CHROM.0>
-29.63677111,88.35280652,0.12049040,-174.62699695,-168.42402931,-83.69781667
-72.95131562

>  <CHROM.1>
113.35079361,65.93973184,-167.92014331,-116.14650102,24.57990934,21.63901572
14.31984128,1.62263307,0.88884975,-0.93505440

>  <FORMUL>
      FLP    C15 H13 F1 O2

>  <HET>
 FLP  A 701      18

>  <HETNAM>
     FLP FLURBIPROFEN

>  <Name>
FLP.pdb

>  <RI>
0

>  <Rbt.Current_Directory>
/home/malgorzata/Desktop/rDOCK_IFD/Wyniki/4c_COX2

>  <Rbt.Executable>
rbdock ($Id: //depot/dev/client3/rdock/2013.1/src/exe/rbdock.cxx#4 $)

>  <Rbt.Library>
libRbt.so (2013.1, Build901 2013/11/27)

>  <Rbt.Parameter_File>
/home/malgorzata/Desktop/rDock_2013.1_src/data/scripts/soft_docking.prm

>  <Rbt.Receptor>
cavity.prm

>  <SCORE>
-30.6948

>  <SCORE.INTER>
-22.2364

>  <SCORE.INTER.CONST>
1

>  <SCORE.INTER.POLAR>
-1.52179

>  <SCORE.INTER.REPUL>
0.270346

>  <SCORE.INTER.ROT>
3

>  <SCORE.INTER.VDW>
-26.8141

>  <SCORE.INTER.norm>
-1.23536

>  <SCORE.INTRA>
-1.74562

>  <SCORE.INTRA.DIHEDRAL>
1.22416

>  <SCORE.INTRA.DIHEDRAL.0>
5.47211

>  <SCORE.INTRA.POLAR>
0

>  <SCORE.INTRA.POLAR.0>
0

>  <SCORE.INTRA.REPUL>
0

>  <SCORE.INTRA.REPUL.0>
0

>  <SCORE.INTRA.VDW>
-1.99046

>  <SCORE.INTRA.VDW.0>
0.722234

>  <SCORE.INTRA.norm>
-0.0969791

>  <SCORE.RESTR>
0.412307

>  <SCORE.RESTR.CAVITY>
0.412307

>  <SCORE.RESTR.norm>
0.0229059

>  <SCORE.SYSTEM>
-7.12506

>  <SCORE.SYSTEM.CONST>
0

>  <SCORE.SYSTEM.DIHEDRAL>
8.31357

>  <SCORE.SYSTEM.POLAR>
-3.00293

>  <SCORE.SYSTEM.REPUL>
0.64611

>  <SCORE.SYSTEM.VDW>
-4.30244

>  <SCORE.SYSTEM.norm>
-0.395837

>  <SCORE.heavy>
18

>  <SCORE.norm>
-1.70527

$$$$
FLP.pdb
  rDOCK(R)          3D
libRbt.so/2013.1/901 2013/11/27
 19 20  0  0  0  0  0  0  0  0999 V2000
   25.2526   22.5161   18.5705 C   0  0  0  0  0  0
   25.1621   22.7667   17.1835 C   0  0  0  0  0  0
   24.7465   21.7575   16.3208 C   0  0  0  0  0  0
   24.4232   20.5043   16.8438 C   0  0  0  0  0  0
   24.5150   20.2625   18.2279 C   0  0  0  0  0  0
   24.9313   21.2734   19.0881 C   0  0  0  0  0  0
   24.6755   21.9972   14.8277 C   0  0  0  0  0  0
   25.8256   21.8913   14.0084 C   0  0  0  0  0  0
   25.7175   22.1033   12.6000 C   0  0  0  0  0  0
   24.4360   22.4230   12.0326 C   0  0  0  0  0  0
   23.3165   22.5160   12.8505 C   0  0  0  0  0  0
   23.4221   22.3128   14.2301 C   0  0  0  0  0  0
   24.2869   22.7558   10.5622 C   0  0  0  0  0  0
   24.2406   21.4802    9.7244 C   0  0  0  0  0  0
   25.4801   23.6174   10.1503 C   0  0  0  0  0  0
   25.6158   23.9598    9.0017 O   0  0  0  0  0  0
   26.3833   23.9679   11.0273 O   0  0  0  0  0  0
   22.3089   22.4365   15.0009 F   0  0  0  0  0  0
   27.2287   24.2530   10.7408 H   0  0  0  0  0  0
  1  2  2  0  0  0
  2  3  1  0  0  0
  3  7  1  0  0  0
  4  3  2  0  0  0
  5  4  1  0  0  0
  6  5  2  0  0  0
  6  1  1  0  0  0
  7  8  2  0  0  0
  7 12  1  0  0  0
  8  9  1  0  0  0
  9 10  2  0  0  0
 10 13  1  0  0  0
 11 10  1  0  0  0
 12 11  2  0  0  0
 13 14  1  0  0  0
 15 17  1  0  0  0
 15 13  1  0  0  0
 16 15  2  0  0  0
 17 19  1  0  0  0
 18 12  1  0  0  0
M  END
>  <CHROM.0>
-15.32336692,82.63064988,0.57577769,176.81136959,160.43442197,-54.42723794
64.37648792

>  <CHROM.1>
82.52033453,81.00327116,160.74858263,176.61863430,24.69032284,22.29699665
13.90191061,-1.64497101,-0.36795048,-1.38780044

>  <FORMUL>
      FLP    C15 H13 F1 O2

>  <HET>
 FLP  A 701      18

>  <HETNAM>
     FLP FLURBIPROFEN

>  <Name>
FLP.pdb

>  <RI>
0

>  <Rbt.Current_Directory>
/home/malgorzata/Desktop/rDOCK_IFD/Wyniki/4c_COX2

>  <Rbt.Executable>
rbdock ($Id: //depot/dev/client3/rdock/2013.1/src/exe/rbdock.cxx#4 $)

>  <Rbt.Library>
libRbt.so (2013.1, Build901 2013/11/27)

>  <Rbt.Parameter_File>
/home/malgorzata/Desktop/rDock_2013.1_src/data/scripts/soft_docking.prm

>  <Rbt.Receptor>
cavity.prm

>  <SCORE>
-28.6023

>  <SCORE.INTER>
-19.1308

>  <SCORE.INTER.CONST>
1

>  <SCORE.INTER.POLAR>
0

>  <SCORE.INTER.REPUL>
0

>  <SCORE.INTER.ROT>
3

>  <SCORE.INTER.VDW>
-27.5308

>  <SCORE.INTER.norm>
-1.06282

>  <SCORE.INTRA>
1.11114

>  <SCORE.INTRA.DIHEDRAL>
4.65614

>  <SCORE.INTRA.DIHEDRAL.0>
5.47211

>  <SCORE.INTRA.POLAR>
0

>  <SCORE.INTRA.POLAR.0>
0

>  <SCORE.INTRA.REPUL>
0

>  <SCORE.INTRA.REPUL.0>
0

>  <SCORE.INTRA.VDW>
0.179917

>  <SCORE.INTRA.VDW.0>
0.722234

>  <SCORE.INTRA.norm>
0.0617302

>  <SCORE.RESTR>
0.0594898

>  <SCORE.RESTR.CAVITY>
0.0594898

>  <SCORE.RESTR.norm>
0.00330499

>  <SCORE.SYSTEM>
-10.6421

>  <SCORE.SYSTEM.CONST>
0

>  <SCORE.SYSTEM.DIHEDRAL>
3.83223

>  <SCORE.SYSTEM.POLAR>
-3.35889

>  <SCORE.SYSTEM.REPUL>
0.773815

>  <SCORE.SYSTEM.VDW>
-5.00706

>  <SCORE.SYSTEM.norm>
-0.591227

>  <SCORE.heavy>
18

>  <SCORE.norm>
-1.58902

$$$$
FLP.pdb
  rDOCK(R)          3D
libRbt.so/2013.1/901 2013/11/27
 19 20  0  0  0  0  0  0  0  0999 V2000
   26.6654   24.8618   12.8632 C   0  0  0  0  0  0
   25.9105   24.1648   13.8323 C   0  0  0  0  0  0
   24.7940   23.4300   13.4466 C   0  0  0  0  0  0
   24.4353   23.3930   12.0980 C   0  0  0  0  0  0
   25.1935   24.0898   11.1376 C   0  0  0  0  0  0
   26.3092   24.8240   11.5264 C   0  0  0  0  0  0
   23.9531   22.7039   14.4749 C   0  0  0  0  0  0
   24.3424   22.6419   15.8349 C   0  0  0  0  0  0
   23.5136   21.9664   16.7820 C   0  0  0  0  0  0
   22.2903   21.3561   16.3377 C   0  0  0  0  0  0
   21.9201   21.4327   15.0005 C   0  0  0  0  0  0
   22.7330   22.0901   14.0717 C   0  0  0  0  0  0
   21.4282   20.5427   17.2812 C   0  0  0  0  0  0
   20.4560   21.4468   18.0352 C   0  0  0  0  0  0
   22.3526   19.8230   18.2626 C   0  0  0  0  0  0
   22.8615   20.4274   19.1741 O   0  0  0  0  0  0
   22.6283   18.5547   18.1105 O   0  0  0  0  0  0
   22.3494   22.1230   12.7678 F   0  0  0  0  0  0
   23.0036   18.0687   18.8184 H   0  0  0  0  0  0
  1  2  2  0  0  0
  2  3  1  0  0  0
  3  7  1  0  0  0
  4  3  2  0  0  0
  5  4  1  0  0  0
  6  5  2  0  0  0
  6  1  1  0  0  0
  7  8  2  0  0  0
  7 12  1  0  0  0
  8  9  1  0  0  0
  9 10  2  0  0  0
 10 13  1  0  0  0
 11 10  1  0  0  0
 12 11  2  0  0  0
 13 14  1  0  0  0
 15 17  1  0  0  0
 15 13  1  0  0  0
 16 15  2  0  0  0
 17 19  1  0  0  0
 18 12  1  0  0  0
M  END
>  <CHROM.0>
-25.54315257,-172.43935528,24.17026455,-16.64952709,178.92023755,-78.43904704
63.75362681

>  <CHROM.1>
-6.09800195,86.76968067,-164.13968466,76.32358721,23.49247784,22.12982793
15.12376806,-1.06803714,0.44276855,1.93465333

>  <FORMUL>
      FLP    C15 H13 F1 O2

>  <HET>
 FLP  A 701      18

>  <HETNAM>
     FLP FLURBIPROFEN

>  <Name>
FLP.pdb

>  <RI>
0

>  <Rbt.Current_Directory>
/home/malgorzata/Desktop/rDOCK_IFD/Wyniki/4c_COX2

>  <Rbt.Executable>
rbdock ($Id: //depot/dev/client3/rdock/2013.1/src/exe/rbdock.cxx#4 $)

>  <Rbt.Library>
libRbt.so (2013.1, Build901 2013/11/27)

>  <Rbt.Parameter_File>
/home/malgorzata/Desktop/rDock_2013.1_src/data/scripts/soft_docking.prm

>  <Rbt.Receptor>
cavity.prm

>  <SCORE>
-32.6123

>  <SCORE.INTER>
-22.706

>  <SCORE.INTER.CONST>
1

>  <SCORE.INTER.POLAR>
-1.09778

>  <SCORE.INTER.REPUL>
0

>  <SCORE.INTER.ROT>
3

>  <SCORE.INTER.VDW>
-27.3735

>  <SCORE.INTER.norm>
-1.26144

>  <SCORE.INTRA>
0.75235

>  <SCORE.INTRA.DIHEDRAL>
-0.697617

>  <SCORE.INTRA.DIHEDRAL.0>
5.47211

>  <SCORE.INTRA.POLAR>
0

>  <SCORE.INTRA.POLAR.0>
0

>  <SCORE.INTRA.REPUL>
0

>  <SCORE.INTRA.REPUL.0>
0

>  <SCORE.INTRA.VDW>
0.891873

>  <SCORE.INTRA.VDW.0>
0.722234

>  <SCORE.INTRA.norm>
0.0417972

>  <SCORE.RESTR>
0.0408805

>  <SCORE.RESTR.CAVITY>
0.0408805

>  <SCORE.RESTR.norm>
0.00227114

>  <SCORE.SYSTEM>
-10.6996

>  <SCORE.SYSTEM.CONST>
0

>  <SCORE.SYSTEM.DIHEDRAL>
3.93185

>  <SCORE.SYSTEM.POLAR>
-3.08632

>  <SCORE.SYSTEM.REPUL>
0.64611

>  <SCORE.SYSTEM.VDW>
-5.40258

>  <SCORE.SYSTEM.norm>
-0.594422

>  <SCORE.heavy>
18

>  <SCORE.norm>
-1.8118

$$$$
FLP.pdb
  rDOCK(R)          3D
libRbt.so/2013.1/901 2013/11/27
 19 20  0  0  0  0  0  0  0  0999 V2000
   25.6523   24.0041   10.1949 C   0  0  0  0  0  0
   25.7432   23.2465   11.3834 C   0  0  0  0  0  0
   24.6081   22.6353   11.9063 C   0  0  0  0  0  0
   23.3886   22.7816   11.2427 C   0  0  0  0  0  0
   23.3063   23.5376   10.0577 C   0  0  0  0  0  0
   24.4429   24.1480    9.5375 C   0  0  0  0  0  0
   24.6792   21.8474   13.1969 C   0  0  0  0  0  0
   25.4293   20.6500   13.2895 C   0  0  0  0  0  0
   25.4915   19.9436   14.5294 C   0  0  0  0  0  0
   24.7876   20.4617   15.6707 C   0  0  0  0  0  0
   24.0620   21.6420   15.5639 C   0  0  0  0  0  0
   23.9970   22.3319   14.3492 C   0  0  0  0  0  0
   24.7389   19.6988   16.9786 C   0  0  0  0  0  0
   26.1477   19.4752   17.5232 C   0  0  0  0  0  0
   24.0526   18.3585   16.7175 C   0  0  0  0  0  0
   23.0799   18.0385   17.3551 O   0  0  0  0  0  0
   24.5265   17.5298   15.8250 O   0  0  0  0  0  0
   23.2570   23.4702   14.2774 F   0  0  0  0  0  0
   23.9468   16.9554   15.3646 H   0  0  0  0  0  0
  1  2  2  0  0  0
  2  3  1  0  0  0
  3  7  1  0  0  0
  4  3  2  0  0  0
  5  4  1  0  0  0
  6  5  2  0  0  0
  6  1  1  0  0  0
  7  8  2  0  0  0
  7 12  1  0  0  0
  8  9  1  0  0  0
  9 10  2  0  0  0
 10 13  1  0  0  0
 11 10  1  0  0  0
 12 11  2  0  0  0
 13 14  1  0  0  0
 15 17  1  0  0  0
 15 13  1  0  0  0
 16 15  2  0  0  0
 17 19  1  0  0  0
 18 12  1  0  0  0
M  END
>  <CHROM.0>
-57.11317694,77.62643790,8.64606326,-55.14473798,-11.54569026,-55.82438143
45.85892386

>  <CHROM.1>
-65.69676534,59.62803932,-149.88679360,-124.07920115,24.48626077,21.25924026
13.96915607,-1.57967087,-0.84596392,2.24185203

>  <FORMUL>
      FLP    C15 H13 F1 O2

>  <HET>
 FLP  A 701      18

>  <HETNAM>
     FLP FLURBIPROFEN

>  <Name>
FLP.pdb

>  <RI>
0

>  <Rbt.Current_Directory>
/home/malgorzata/Desktop/rDOCK_IFD/Wyniki/4c_COX2

>  <Rbt.Executable>
rbdock ($Id: //depot/dev/client3/rdock/2013.1/src/exe/rbdock.cxx#4 $)

>  <Rbt.Library>
libRbt.so (2013.1, Build901 2013/11/27)

>  <Rbt.Parameter_File>
/home/malgorzata/Desktop/rDock_2013.1_src/data/scripts/soft_docking.prm

>  <Rbt.Receptor>
cavity.prm

>  <SCORE>
-30.6725

>  <SCORE.INTER>
-20.4824

>  <SCORE.INTER.CONST>
1

>  <SCORE.INTER.POLAR>
-2.18506

>  <SCORE.INTER.REPUL>
0.0468128

>  <SCORE.INTER.ROT>
3

>  <SCORE.INTER.VDW>
-21.6873

>  <SCORE.INTER.norm>
-1.13791

>  <SCORE.INTRA>
-0.753834

>  <SCORE.INTRA.DIHEDRAL>
6.16639

>  <SCORE.INTRA.DIHEDRAL.0>
5.47211

>  <SCORE.INTRA.POLAR>
0

>  <SCORE.INTRA.POLAR.0>
0

>  <SCORE.INTRA.REPUL>
0

>  <SCORE.INTRA.REPUL.0>
0

>  <SCORE.INTRA.VDW>
-1.98711

>  <SCORE.INTRA.VDW.0>
0.722234

>  <SCORE.INTRA.norm>
-0.0418797

>  <SCORE.RESTR>
0.0267768

>  <SCORE.RESTR.CAVITY>
0.0267768

>  <SCORE.RESTR.norm>
0.0014876

>  <SCORE.SYSTEM>
-9.46298

>  <SCORE.SYSTEM.CONST>
0

>  <SCORE.SYSTEM.DIHEDRAL>
6.56731

>  <SCORE.SYSTEM.POLAR>
-3.10061

>  <SCORE.SYSTEM.REPUL>
0.64611

>  <SCORE.SYSTEM.VDW>
-5.43512

>  <SCORE.SYSTEM.norm>
-0.525721

>  <SCORE.heavy>
18

>  <SCORE.norm>
-1.70403

$$$$
