OHT.pdb
  rDOCK(R)          3D
libRbt.so/2013.1/901 2013/11/27
 30 32  0  0  0  0  0  0  0  0999 V2000
   64.9921   35.6654   69.3738 C   0  0  0  0  0  0
   65.3578   34.2132   69.5134 C   0  0  0  0  0  0
   66.2490   33.9596   70.7116 C   0  0  0  0  0  0
   65.8293   32.7832   71.5328 C   0  0  0  0  0  0
   66.3323   31.4947   71.2538 C   0  0  0  0  0  0
   65.9777   30.4064   72.0518 C   0  0  0  0  0  0
   65.1266   30.5610   73.1283 C   0  0  0  0  0  0
   64.6261   31.8090   73.4137 C   0  0  0  0  0  0
   64.9759   32.9088   72.6222 C   0  0  0  0  0  0
   67.3310   34.7397   71.0036 C   0  0  0  0  0  0
   67.9505   35.7150   70.0329 C   0  0  0  0  0  0
   68.5779   35.2795   68.8241 C   0  0  0  0  0  0
   69.1919   36.2024   67.9653 C   0  0  0  0  0  0
   69.1847   37.5683   68.3059 C   0  0  0  0  0  0
   69.8053   38.4435   67.4654 O   0  0  0  0  0  0
   68.5649   38.0107   69.4968 C   0  0  0  0  0  0
   67.9633   37.0801   70.3345 C   0  0  0  0  0  0
   68.0117   34.6895   72.3011 C   0  0  0  0  0  0
   68.5046   35.8398   72.9125 C   0  0  0  0  0  0
   69.1195   35.8157   74.1325 C   0  0  0  0  0  0
   69.2631   34.6097   74.7996 C   0  0  0  0  0  0
   69.8315   34.5024   76.0365 O   0  0  0  0  0  0
   69.1798   33.7490   77.0547 C   0  0  0  0  0  0
   68.2400   34.6949   77.7520 C   0  0  0  0  0  0
   68.8831   35.5363   78.7237 N   0  0  0  0  0  0
   68.5640   36.9489   78.5118 C   0  0  0  0  0  0
   68.4335   35.1638   80.0700 C   0  0  0  0  0  0
   68.7804   33.4278   74.2114 C   0  0  0  0  0  0
   68.1692   33.4793   72.9901 C   0  0  0  0  0  0
   69.7875   38.2970   66.5401 H   0  0  0  0  0  0
  1  2  1  0  0  0
  2  3  1  0  0  0
  3  4  1  0  0  0
  3 10  1  0  0  0
  4  5  2  0  0  0
  4  9  1  0  0  0
  5  6  1  0  0  0
  6  7  2  0  0  0
  7  8  1  0  0  0
  8  9  2  0  0  0
 10 11  1  0  0  0
 10 18  1  0  0  0
 11 12  2  0  0  0
 11 17  1  0  0  0
 12 13  1  0  0  0
 13 14  2  0  0  0
 14 15  1  0  0  0
 14 16  1  0  0  0
 15 30  1  0  0  0
 16 17  2  0  0  0
 18 19  2  0  0  0
 18 29  1  0  0  0
 19 20  1  0  0  0
 20 21  2  0  0  0
 21 22  1  0  0  0
 21 28  1  0  0  0
 22 23  1  0  0  0
 23 24  1  0  0  0
 24 25  1  0  0  0
 25 26  1  0  0  0
 25 27  1  0  0  0
 28 29  2  0  0  0
M  END
>  <CHROM.0>
-38.77240518,-57.61856068,141.04507892,-153.49223087

>  <CHROM.1>
134.17265261,90.11784621,-14.74323455,-64.78843448,-141.78863762,34.92516161
131.85921975,-87.83352060,-80.46747229,128.29059743,67.72027384,34.71552692
72.70951298,1.71222724,-0.92677393,-1.31075856

>  <FORMUL>
      OHT    C26 H29 N1 O2

>  <HET>
 OHT  A 600      29

>  <HETNAM>
     OHT 4-HYDROXYTAMOXIFEN

>  <Name>
OHT.pdb

>  <RI>
0

>  <Rbt.Current_Directory>
/home/malgorzata/Desktop/rDOCK_IFD/Wyniki/5_estrogen_receptor

>  <Rbt.Executable>
rbdock ($Id: //depot/dev/client3/rdock/2013.1/src/exe/rbdock.cxx#4 $)

>  <Rbt.Library>
libRbt.so (2013.1, Build901 2013/11/27)

>  <Rbt.Parameter_File>
/home/malgorzata/Desktop/rDock_2013.1_src/data/scripts/soft_docking.prm

>  <Rbt.Receptor>
cavity.prm

>  <SCORE>
-78.1612

>  <SCORE.INTER>
-20.9493

>  <SCORE.INTER.CONST>
1

>  <SCORE.INTER.POLAR>
-0.811205

>  <SCORE.INTER.REPUL>
0.21066

>  <SCORE.INTER.ROT>
9

>  <SCORE.INTER.VDW>
-33.6445

>  <SCORE.INTER.norm>
-0.722389

>  <SCORE.INTRA>
-0.111474

>  <SCORE.INTRA.DIHEDRAL>
3.10535

>  <SCORE.INTRA.DIHEDRAL.0>
14.7815

>  <SCORE.INTRA.POLAR>
0

>  <SCORE.INTRA.POLAR.0>
0

>  <SCORE.INTRA.REPUL>
0

>  <SCORE.INTRA.REPUL.0>
0

>  <SCORE.INTRA.VDW>
-0.732544

>  <SCORE.INTRA.VDW.0>
-0.0652974

>  <SCORE.INTRA.norm>
-0.00384393

>  <SCORE.RESTR>
0.360081

>  <SCORE.RESTR.CAVITY>
0.360081

>  <SCORE.RESTR.norm>
0.0124166

>  <SCORE.SYSTEM>
-57.4605

>  <SCORE.SYSTEM.CONST>
0

>  <SCORE.SYSTEM.DIHEDRAL>
1.92458

>  <SCORE.SYSTEM.POLAR>
-0.292314

>  <SCORE.SYSTEM.REPUL>
0.00892831

>  <SCORE.SYSTEM.VDW>
-57.4736

>  <SCORE.SYSTEM.norm>
-1.9814

>  <SCORE.heavy>
29

>  <SCORE.norm>
-2.69521

$$$$
OHT.pdb
  rDOCK(R)          3D
libRbt.so/2013.1/901 2013/11/27
 30 32  0  0  0  0  0  0  0  0999 V2000
   64.9136   33.6749   74.0092 C   0  0  0  0  0  0
   65.3733   35.0449   73.5923 C   0  0  0  0  0  0
   66.4743   34.9882   72.5537 C   0  0  0  0  0  0
   65.9836   34.6798   71.1758 C   0  0  0  0  0  0
   66.0632   33.3688   70.6602 C   0  0  0  0  0  0
   65.5600   33.0729   69.3929 C   0  0  0  0  0  0
   64.9766   34.0518   68.6128 C   0  0  0  0  0  0
   64.8920   35.3348   69.0988 C   0  0  0  0  0  0
   65.3911   35.6438   70.3691 C   0  0  0  0  0  0
   67.7880   35.2004   72.8598 C   0  0  0  0  0  0
   68.7358   35.9924   71.9927 C   0  0  0  0  0  0
   69.5691   37.0215   72.5319 C   0  0  0  0  0  0
   70.4024   37.7777   71.6950 C   0  0  0  0  0  0
   70.4110   37.5126   70.3125 C   0  0  0  0  0  0
   71.2141   38.2742   69.5171 O   0  0  0  0  0  0
   69.5936   36.4956   69.7687 C   0  0  0  0  0  0
   68.7744   35.7588   70.6147 C   0  0  0  0  0  0
   68.4133   34.6566   74.0692 C   0  0  0  0  0  0
   68.2834   35.2860   75.3049 C   0  0  0  0  0  0
   68.8381   34.7809   76.4470 C   0  0  0  0  0  0
   69.5572   33.5979   76.3898 C   0  0  0  0  0  0
   70.1121   33.0062   77.4883 O   0  0  0  0  0  0
   71.4377   33.3452   77.8842 C   0  0  0  0  0  0
   71.4051   34.7927   78.2940 C   0  0  0  0  0  0
   70.4924   35.0682   79.3695 N   0  0  0  0  0  0
   71.1988   35.3396   80.6223 C   0  0  0  0  0  0
   69.6832   36.2463   79.0373 C   0  0  0  0  0  0
   69.7115   32.9365   75.1591 C   0  0  0  0  0  0
   69.1467   33.4630   74.0314 C   0  0  0  0  0  0
   71.0106   39.1775   69.3739 H   0  0  0  0  0  0
  1  2  1  0  0  0
  2  3  1  0  0  0
  3  4  1  0  0  0
  3 10  1  0  0  0
  4  5  2  0  0  0
  4  9  1  0  0  0
  5  6  1  0  0  0
  6  7  2  0  0  0
  7  8  1  0  0  0
  8  9  2  0  0  0
 10 11  1  0  0  0
 10 18  1  0  0  0
 11 12  2  0  0  0
 11 17  1  0  0  0
 12 13  1  0  0  0
 13 14  2  0  0  0
 14 15  1  0  0  0
 14 16  1  0  0  0
 15 30  1  0  0  0
 16 17  2  0  0  0
 18 19  2  0  0  0
 18 29  1  0  0  0
 19 20  1  0  0  0
 20 21  2  0  0  0
 21 22  1  0  0  0
 21 28  1  0  0  0
 22 23  1  0  0  0
 23 24  1  0  0  0
 24 25  1  0  0  0
 25 26  1  0  0  0
 25 27  1  0  0  0
 28 29  2  0  0  0
M  END
>  <CHROM.0>
137.62386034,-61.21912281,-126.09508395,-154.50409032

>  <CHROM.1>
77.43668453,-98.89053213,-139.32393084,131.05584352,-81.78571187,-69.41822130
-89.62561115,65.21104470,59.03346683,107.26483250,68.48133285,35.06089891
73.65085942,2.05763211,-0.55071882,-1.21473802

>  <FORMUL>
      OHT    C26 H29 N1 O2

>  <HET>
 OHT  A 600      29

>  <HETNAM>
     OHT 4-HYDROXYTAMOXIFEN

>  <Name>
OHT.pdb

>  <RI>
0

>  <Rbt.Current_Directory>
/home/malgorzata/Desktop/rDOCK_IFD/Wyniki/5_estrogen_receptor

>  <Rbt.Executable>
rbdock ($Id: //depot/dev/client3/rdock/2013.1/src/exe/rbdock.cxx#4 $)

>  <Rbt.Library>
libRbt.so (2013.1, Build901 2013/11/27)

>  <Rbt.Parameter_File>
/home/malgorzata/Desktop/rDock_2013.1_src/data/scripts/soft_docking.prm

>  <Rbt.Receptor>
cavity.prm

>  <SCORE>
-77.3937

>  <SCORE.INTER>
-14.0773

>  <SCORE.INTER.CONST>
1

>  <SCORE.INTER.POLAR>
-0.461093

>  <SCORE.INTER.REPUL>
0.0227146

>  <SCORE.INTER.ROT>
9

>  <SCORE.INTER.VDW>
-27.0231

>  <SCORE.INTER.norm>
-0.485424

>  <SCORE.INTRA>
-2.77247

>  <SCORE.INTRA.DIHEDRAL>
4.94914

>  <SCORE.INTRA.DIHEDRAL.0>
14.7815

>  <SCORE.INTRA.POLAR>
0

>  <SCORE.INTRA.POLAR.0>
0

>  <SCORE.INTRA.REPUL>
0

>  <SCORE.INTRA.REPUL.0>
0

>  <SCORE.INTRA.VDW>
-3.7623

>  <SCORE.INTRA.VDW.0>
-0.0652974

>  <SCORE.INTRA.norm>
-0.0956024

>  <SCORE.RESTR>
0.745854

>  <SCORE.RESTR.CAVITY>
0.745854

>  <SCORE.RESTR.norm>
0.0257191

>  <SCORE.SYSTEM>
-61.2898

>  <SCORE.SYSTEM.CONST>
0

>  <SCORE.SYSTEM.DIHEDRAL>
1.8175

>  <SCORE.SYSTEM.POLAR>
-0.144618

>  <SCORE.SYSTEM.REPUL>
0.1482

>  <SCORE.SYSTEM.VDW>
-62.4479

>  <SCORE.SYSTEM.norm>
-2.11344

>  <SCORE.heavy>
29

>  <SCORE.norm>
-2.66875

$$$$
OHT.pdb
  rDOCK(R)          3D
libRbt.so/2013.1/901 2013/11/27
 30 32  0  0  0  0  0  0  0  0999 V2000
   66.1538   32.1814   69.5171 C   0  0  0  0  0  0
   67.4220   32.6901   70.1458 C   0  0  0  0  0  0
   67.1545   33.5184   71.3853 C   0  0  0  0  0  0
   66.9445   34.9711   71.1020 C   0  0  0  0  0  0
   65.6833   35.4481   70.6861 C   0  0  0  0  0  0
   65.4763   36.8108   70.4696 C   0  0  0  0  0  0
   66.4965   37.7233   70.6527 C   0  0  0  0  0  0
   67.7320   37.2759   71.0563 C   0  0  0  0  0  0
   67.9517   35.9118   71.2788 C   0  0  0  0  0  0
   67.1120   32.9774   72.6383 C   0  0  0  0  0  0
   66.3985   31.6909   72.9745 C   0  0  0  0  0  0
   65.0697   31.4247   72.5186 C   0  0  0  0  0  0
   64.4104   30.2439   72.8892 C   0  0  0  0  0  0
   65.0722   29.3184   73.7182 C   0  0  0  0  0  0
   64.4033   28.1878   74.0811 O   0  0  0  0  0  0
   66.3869   29.5696   74.1725 C   0  0  0  0  0  0
   67.0220   30.7460   73.7950 C   0  0  0  0  0  0
   67.7513   33.6141   73.7939 C   0  0  0  0  0  0
   69.0504   33.2922   74.1794 C   0  0  0  0  0  0
   69.6712   33.8929   75.2382 C   0  0  0  0  0  0
   68.9968   34.8621   75.9632 C   0  0  0  0  0  0
   69.5558   35.5366   77.0106 O   0  0  0  0  0  0
   68.7551   36.4092   77.8021 C   0  0  0  0  0  0
   69.6828   37.4562   78.3566 C   0  0  0  0  0  0
   69.2914   37.9487   79.6489 N   0  0  0  0  0  0
   69.9347   37.2011   80.7302 C   0  0  0  0  0  0
   69.6790   39.3584   79.7752 C   0  0  0  0  0  0
   67.6830   35.2106   75.6046 C   0  0  0  0  0  0
   67.0849   34.5945   74.5414 C   0  0  0  0  0  0
   63.8263   28.2013   74.8193 H   0  0  0  0  0  0
  1  2  1  0  0  0
  2  3  1  0  0  0
  3  4  1  0  0  0
  3 10  1  0  0  0
  4  5  2  0  0  0
  4  9  1  0  0  0
  5  6  1  0  0  0
  6  7  2  0  0  0
  7  8  1  0  0  0
  8  9  2  0  0  0
 10 11  1  0  0  0
 10 18  1  0  0  0
 11 12  2  0  0  0
 11 17  1  0  0  0
 12 13  1  0  0  0
 13 14  2  0  0  0
 14 15  1  0  0  0
 14 16  1  0  0  0
 15 30  1  0  0  0
 16 17  2  0  0  0
 18 19  2  0  0  0
 18 29  1  0  0  0
 19 20  1  0  0  0
 20 21  2  0  0  0
 21 22  1  0  0  0
 21 28  1  0  0  0
 22 23  1  0  0  0
 23 24  1  0  0  0
 24 25  1  0  0  0
 25 26  1  0  0  0
 25 27  1  0  0  0
 28 29  2  0  0  0
M  END
>  <CHROM.0>
-19.44965557,-59.48749158,-24.26973086,-153.71887584

>  <CHROM.1>
-88.59535842,82.48226434,-44.22425318,-46.76305646,-92.75950356,-84.68040009
-172.94184087,-152.47109753,-148.47143322,92.64405089,67.40262722,34.15920837
74.08992581,-3.02160132,1.17646493,2.30616833

>  <FORMUL>
      OHT    C26 H29 N1 O2

>  <HET>
 OHT  A 600      29

>  <HETNAM>
     OHT 4-HYDROXYTAMOXIFEN

>  <Name>
OHT.pdb

>  <RI>
0

>  <Rbt.Current_Directory>
/home/malgorzata/Desktop/rDOCK_IFD/Wyniki/5_estrogen_receptor

>  <Rbt.Executable>
rbdock ($Id: //depot/dev/client3/rdock/2013.1/src/exe/rbdock.cxx#4 $)

>  <Rbt.Library>
libRbt.so (2013.1, Build901 2013/11/27)

>  <Rbt.Parameter_File>
/home/malgorzata/Desktop/rDock_2013.1_src/data/scripts/soft_docking.prm

>  <Rbt.Receptor>
cavity.prm

>  <SCORE>
-77.9206

>  <SCORE.INTER>
-16.7494

>  <SCORE.INTER.CONST>
1

>  <SCORE.INTER.POLAR>
-0.421627

>  <SCORE.INTER.REPUL>
0.449632

>  <SCORE.INTER.ROT>
9

>  <SCORE.INTER.VDW>
-31.9641

>  <SCORE.INTER.norm>
-0.577567

>  <SCORE.INTRA>
-0.606493

>  <SCORE.INTRA.DIHEDRAL>
4.91856

>  <SCORE.INTRA.DIHEDRAL.0>
14.7815

>  <SCORE.INTRA.POLAR>
0

>  <SCORE.INTRA.POLAR.0>
0

>  <SCORE.INTRA.REPUL>
0

>  <SCORE.INTRA.REPUL.0>
0

>  <SCORE.INTRA.VDW>
-1.5902

>  <SCORE.INTRA.VDW.0>
-0.0652974

>  <SCORE.INTRA.norm>
-0.0209136

>  <SCORE.RESTR>
0.628022

>  <SCORE.RESTR.CAVITY>
0.628022

>  <SCORE.RESTR.norm>
0.0216559

>  <SCORE.SYSTEM>
-61.1927

>  <SCORE.SYSTEM.CONST>
0

>  <SCORE.SYSTEM.DIHEDRAL>
1.90546

>  <SCORE.SYSTEM.POLAR>
-0.259548

>  <SCORE.SYSTEM.REPUL>
0.0900433

>  <SCORE.SYSTEM.VDW>
-61.7132

>  <SCORE.SYSTEM.norm>
-2.11009

>  <SCORE.heavy>
29

>  <SCORE.norm>
-2.68692

$$$$
OHT.pdb
  rDOCK(R)          3D
libRbt.so/2013.1/901 2013/11/27
 30 32  0  0  0  0  0  0  0  0999 V2000
   69.5387   31.3752   70.9960 C   0  0  0  0  0  0
   68.3010   31.2908   71.8465 C   0  0  0  0  0  0
   67.3352   32.4234   71.5662 C   0  0  0  0  0  0
   66.1334   32.0062   70.7812 C   0  0  0  0  0  0
   66.2422   31.6967   69.4088 C   0  0  0  0  0  0
   65.1292   31.2603   68.6895 C   0  0  0  0  0  0
   63.8972   31.1238   69.2985 C   0  0  0  0  0  0
   63.7729   31.4224   70.6345 C   0  0  0  0  0  0
   64.8822   31.8590   71.3674 C   0  0  0  0  0  0
   67.5531   33.7012   71.9955 C   0  0  0  0  0  0
   67.1740   34.9296   71.2050 C   0  0  0  0  0  0
   68.1454   35.9023   70.8120 C   0  0  0  0  0  0
   67.7580   37.0608   70.1233 C   0  0  0  0  0  0
   66.3974   37.2580   69.8209 C   0  0  0  0  0  0
   66.0432   38.4011   69.1688 O   0  0  0  0  0  0
   65.4287   36.3017   70.2019 C   0  0  0  0  0  0
   65.8330   35.1614   70.8845 C   0  0  0  0  0  0
   68.2002   34.0029   73.2759 C   0  0  0  0  0  0
   67.6716   33.5565   74.4847 C   0  0  0  0  0  0
   68.2739   33.8068   75.6855 C   0  0  0  0  0  0
   69.4566   34.5281   75.7174 C   0  0  0  0  0  0
   70.1416   34.7905   76.8691 O   0  0  0  0  0  0
   69.5716   34.4470   78.1285 C   0  0  0  0  0  0
   68.6391   35.5692   78.4966 C   0  0  0  0  0  0
   67.4675   35.1367   79.2080 N   0  0  0  0  0  0
   66.6834   34.1788   78.4272 C   0  0  0  0  0  0
   67.8664   34.4859   80.4613 C   0  0  0  0  0  0
   70.0178   34.9972   74.5170 C   0  0  0  0  0  0
   69.3952   34.7332   73.3293 C   0  0  0  0  0  0
   65.7213   38.3585   68.2898 H   0  0  0  0  0  0
  1  2  1  0  0  0
  2  3  1  0  0  0
  3  4  1  0  0  0
  3 10  1  0  0  0
  4  5  2  0  0  0
  4  9  1  0  0  0
  5  6  1  0  0  0
  6  7  2  0  0  0
  7  8  1  0  0  0
  8  9  2  0  0  0
 10 11  1  0  0  0
 10 18  1  0  0  0
 11 12  2  0  0  0
 11 17  1  0  0  0
 12 13  1  0  0  0
 13 14  2  0  0  0
 14 15  1  0  0  0
 14 16  1  0  0  0
 15 30  1  0  0  0
 16 17  2  0  0  0
 18 19  2  0  0  0
 18 29  1  0  0  0
 19 20  1  0  0  0
 20 21  2  0  0  0
 21 22  1  0  0  0
 21 28  1  0  0  0
 22 23  1  0  0  0
 23 24  1  0  0  0
 24 25  1  0  0  0
 25 26  1  0  0  0
 25 27  1  0  0  0
 28 29  2  0  0  0
M  END
>  <CHROM.0>
-56.94207991,-59.04954639,-80.71372921,-161.70399167

>  <CHROM.1>
105.63672344,-72.43262822,143.93014692,-121.14975538,-59.00730832,112.43061288
-7.04765915,-82.87357919,145.33562485,-59.24882431,67.37126343,34.08191509
73.10895280,2.66409484,-1.21675377,-0.64079421

>  <FORMUL>
      OHT    C26 H29 N1 O2

>  <HET>
 OHT  A 600      29

>  <HETNAM>
     OHT 4-HYDROXYTAMOXIFEN

>  <Name>
OHT.pdb

>  <RI>
0

>  <Rbt.Current_Directory>
/home/malgorzata/Desktop/rDOCK_IFD/Wyniki/5_estrogen_receptor

>  <Rbt.Executable>
rbdock ($Id: //depot/dev/client3/rdock/2013.1/src/exe/rbdock.cxx#4 $)

>  <Rbt.Library>
libRbt.so (2013.1, Build901 2013/11/27)

>  <Rbt.Parameter_File>
/home/malgorzata/Desktop/rDock_2013.1_src/data/scripts/soft_docking.prm

>  <Rbt.Receptor>
cavity.prm

>  <SCORE>
-73.9214

>  <SCORE.INTER>
-15.7016

>  <SCORE.INTER.CONST>
1

>  <SCORE.INTER.POLAR>
-0.028953

>  <SCORE.INTER.REPUL>
0

>  <SCORE.INTER.ROT>
9

>  <SCORE.INTER.VDW>
-30.0032

>  <SCORE.INTER.norm>
-0.541435

>  <SCORE.INTRA>
2.63808

>  <SCORE.INTRA.DIHEDRAL>
1.78823

>  <SCORE.INTRA.DIHEDRAL.0>
14.7815

>  <SCORE.INTRA.POLAR>
0

>  <SCORE.INTRA.POLAR.0>
0

>  <SCORE.INTRA.REPUL>
0

>  <SCORE.INTRA.REPUL.0>
0

>  <SCORE.INTRA.VDW>
2.28043

>  <SCORE.INTRA.VDW.0>
-0.0652974

>  <SCORE.INTRA.norm>
0.0909681

>  <SCORE.RESTR>
0.382839

>  <SCORE.RESTR.CAVITY>
0.382839

>  <SCORE.RESTR.norm>
0.0132013

>  <SCORE.SYSTEM>
-61.2407

>  <SCORE.SYSTEM.CONST>
0

>  <SCORE.SYSTEM.DIHEDRAL>
1.4022

>  <SCORE.SYSTEM.POLAR>
-0.277797

>  <SCORE.SYSTEM.REPUL>
0.0719828

>  <SCORE.SYSTEM.VDW>
-61.3572

>  <SCORE.SYSTEM.norm>
-2.11175

>  <SCORE.heavy>
29

>  <SCORE.norm>
-2.54901

$$$$
OHT.pdb
  rDOCK(R)          3D
libRbt.so/2013.1/901 2013/11/27
 30 32  0  0  0  0  0  0  0  0999 V2000
   68.9160   32.6852   70.0009 C   0  0  0  0  0  0
   67.4658   32.6204   70.3944 C   0  0  0  0  0  0
   67.2643   32.8475   71.8783 C   0  0  0  0  0  0
   66.6890   31.6673   72.5929 C   0  0  0  0  0  0
   67.5292   30.6539   73.1010 C   0  0  0  0  0  0
   66.9943   29.5780   73.8103 C   0  0  0  0  0  0
   65.6347   29.4761   74.0298 C   0  0  0  0  0  0
   64.8013   30.4537   73.5407 C   0  0  0  0  0  0
   65.3257   31.5388   72.8294 C   0  0  0  0  0  0
   67.5821   34.0243   72.4937 C   0  0  0  0  0  0
   68.0228   35.2656   71.7572 C   0  0  0  0  0  0
   69.2475   35.9332   72.0712 C   0  0  0  0  0  0
   69.6077   37.1146   71.4070 C   0  0  0  0  0  0
   68.7482   37.6394   70.4233 C   0  0  0  0  0  0
   69.1104   38.7993   69.8061 O   0  0  0  0  0  0
   67.5364   36.9863   70.1026 C   0  0  0  0  0  0
   67.1974   35.8178   70.7730 C   0  0  0  0  0  0
   67.5398   34.1889   73.9498 C   0  0  0  0  0  0
   68.5873   33.7641   74.7637 C   0  0  0  0  0  0
   68.5765   33.9315   76.1198 C   0  0  0  0  0  0
   67.4910   34.5473   76.7218 C   0  0  0  0  0  0
   67.4165   34.7864   78.0641 O   0  0  0  0  0  0
   68.1962   34.0096   78.9683 C   0  0  0  0  0  0
   69.2561   34.9265   79.5164 C   0  0  0  0  0  0
   68.8209   35.7027   80.6450 N   0  0  0  0  0  0
   69.6661   35.4733   81.8177 C   0  0  0  0  0  0
   68.8809   37.1305   80.3115 C   0  0  0  0  0  0
   66.4142   34.9863   75.9320 C   0  0  0  0  0  0
   66.4498   34.8067   74.5776 C   0  0  0  0  0  0
   68.8423   39.6233   70.1627 H   0  0  0  0  0  0
  1  2  1  0  0  0
  2  3  1  0  0  0
  3  4  1  0  0  0
  3 10  1  0  0  0
  4  5  2  0  0  0
  4  9  1  0  0  0
  5  6  1  0  0  0
  6  7  2  0  0  0
  7  8  1  0  0  0
  8  9  2  0  0  0
 10 11  1  0  0  0
 10 18  1  0  0  0
 11 12  2  0  0  0
 11 17  1  0  0  0
 12 13  1  0  0  0
 13 14  2  0  0  0
 14 15  1  0  0  0
 14 16  1  0  0  0
 15 30  1  0  0  0
 16 17  2  0  0  0
 18 19  2  0  0  0
 18 29  1  0  0  0
 19 20  1  0  0  0
 20 21  2  0  0  0
 21 22  1  0  0  0
 21 28  1  0  0  0
 22 23  1  0  0  0
 23 24  1  0  0  0
 24 25  1  0  0  0
 25 26  1  0  0  0
 25 27  1  0  0  0
 28 29  2  0  0  0
M  END
>  <CHROM.0>
-137.80759187,-60.22009130,163.65769386,9.64700336

>  <CHROM.1>
-116.51114801,87.18055722,6.81555936,-125.23519247,81.47140116,-90.06367787
-22.81300903,110.02071470,85.02190778,122.29070887,67.79747568,34.24789284
74.30182928,1.83960918,-1.19464509,-1.41192296

>  <FORMUL>
      OHT    C26 H29 N1 O2

>  <HET>
 OHT  A 600      29

>  <HETNAM>
     OHT 4-HYDROXYTAMOXIFEN

>  <Name>
OHT.pdb

>  <RI>
0

>  <Rbt.Current_Directory>
/home/malgorzata/Desktop/rDOCK_IFD/Wyniki/5_estrogen_receptor

>  <Rbt.Executable>
rbdock ($Id: //depot/dev/client3/rdock/2013.1/src/exe/rbdock.cxx#4 $)

>  <Rbt.Library>
libRbt.so (2013.1, Build901 2013/11/27)

>  <Rbt.Parameter_File>
/home/malgorzata/Desktop/rDock_2013.1_src/data/scripts/soft_docking.prm

>  <Rbt.Receptor>
cavity.prm

>  <SCORE>
-88.3379

>  <SCORE.INTER>
-24.8005

>  <SCORE.INTER.CONST>
1

>  <SCORE.INTER.POLAR>
-1.9816

>  <SCORE.INTER.REPUL>
0.135069

>  <SCORE.INTER.ROT>
9

>  <SCORE.INTER.VDW>
-33.1384

>  <SCORE.INTER.norm>
-0.855189

>  <SCORE.INTRA>
-1.76069

>  <SCORE.INTRA.DIHEDRAL>
8.43371

>  <SCORE.INTRA.DIHEDRAL.0>
14.7815

>  <SCORE.INTRA.POLAR>
0

>  <SCORE.INTRA.POLAR.0>
0

>  <SCORE.INTRA.REPUL>
0

>  <SCORE.INTRA.REPUL.0>
0

>  <SCORE.INTRA.VDW>
-3.44743

>  <SCORE.INTRA.VDW.0>
-0.0652974

>  <SCORE.INTRA.norm>
-0.0607133

>  <SCORE.RESTR>
0

>  <SCORE.RESTR.CAVITY>
0

>  <SCORE.RESTR.norm>
0

>  <SCORE.SYSTEM>
-61.7767

>  <SCORE.SYSTEM.CONST>
0

>  <SCORE.SYSTEM.DIHEDRAL>
1.07648

>  <SCORE.SYSTEM.POLAR>
-0.214367

>  <SCORE.SYSTEM.REPUL>
0.117692

>  <SCORE.SYSTEM.VDW>
-62.1746

>  <SCORE.SYSTEM.norm>
-2.13023

>  <SCORE.heavy>
29

>  <SCORE.norm>
-3.04613

$$$$
OHT.pdb
  rDOCK(R)          3D
libRbt.so/2013.1/901 2013/11/27
 30 32  0  0  0  0  0  0  0  0999 V2000
   65.2474   35.5621   68.0846 C   0  0  0  0  0  0
   65.0299   34.7827   69.3524 C   0  0  0  0  0  0
   66.3274   34.2605   69.9335 C   0  0  0  0  0  0
   66.6912   32.8920   69.4546 C   0  0  0  0  0  0
   65.8210   31.8012   69.6646 C   0  0  0  0  0  0
   66.1397   30.5346   69.1739 C   0  0  0  0  0  0
   67.3111   30.3161   68.4759 C   0  0  0  0  0  0
   68.1712   31.3671   68.2635 C   0  0  0  0  0  0
   67.8619   32.6427   68.7488 C   0  0  0  0  0  0
   67.0847   34.9817   70.8117 C   0  0  0  0  0  0
   67.4584   34.4998   72.1921 C   0  0  0  0  0  0
   68.7848   34.0684   72.5063 C   0  0  0  0  0  0
   69.0922   33.5759   73.7828 C   0  0  0  0  0  0
   68.0778   33.5101   74.7567 C   0  0  0  0  0  0
   68.3964   33.0090   75.9835 O   0  0  0  0  0  0
   66.7637   33.9365   74.4582 C   0  0  0  0  0  0
   66.4796   34.4201   73.1873 C   0  0  0  0  0  0
   67.5990   36.3179   70.4965 C   0  0  0  0  0  0
   67.5120   37.3678   71.4075 C   0  0  0  0  0  0
   68.0078   38.6129   71.1410 C   0  0  0  0  0  0
   68.6252   38.8545   69.9243 C   0  0  0  0  0  0
   69.1793   40.0576   69.5927 O   0  0  0  0  0  0
   68.5476   41.2672   70.0013 C   0  0  0  0  0  0
   69.2360   42.3811   69.2598 C   0  0  0  0  0  0
   69.7889   43.3918   70.1192 N   0  0  0  0  0  0
   70.7626   44.2273   69.4149 C   0  0  0  0  0  0
   68.7132   44.2604   70.6109 C   0  0  0  0  0  0
   68.7285   37.8192   68.9791 C   0  0  0  0  0  0
   68.2242   36.5828   69.2705 C   0  0  0  0  0  0
   67.7523   32.5458   76.4820 H   0  0  0  0  0  0
  1  2  1  0  0  0
  2  3  1  0  0  0
  3  4  1  0  0  0
  3 10  1  0  0  0
  4  5  2  0  0  0
  4  9  1  0  0  0
  5  6  1  0  0  0
  6  7  2  0  0  0
  7  8  1  0  0  0
  8  9  2  0  0  0
 10 11  1  0  0  0
 10 18  1  0  0  0
 11 12  2  0  0  0
 11 17  1  0  0  0
 12 13  1  0  0  0
 13 14  2  0  0  0
 14 15  1  0  0  0
 14 16  1  0  0  0
 15 30  1  0  0  0
 16 17  2  0  0  0
 18 19  2  0  0  0
 18 29  1  0  0  0
 19 20  1  0  0  0
 20 21  2  0  0  0
 21 22  1  0  0  0
 21 28  1  0  0  0
 22 23  1  0  0  0
 23 24  1  0  0  0
 24 25  1  0  0  0
 25 26  1  0  0  0
 25 27  1  0  0  0
 28 29  2  0  0  0
M  END
>  <CHROM.0>
146.30674765,-61.75034582,136.98074661,0.89534774

>  <CHROM.1>
-91.17980760,-58.70302290,122.19788912,106.71039361,134.37926451,-148.44248285
-37.62029460,-168.98051364,-123.43939483,163.41388892,67.80882228,36.24850660
70.66533376,2.39291459,1.27146690,2.23265162

>  <FORMUL>
      OHT    C26 H29 N1 O2

>  <HET>
 OHT  A 600      29

>  <HETNAM>
     OHT 4-HYDROXYTAMOXIFEN

>  <Name>
OHT.pdb

>  <RI>
0

>  <Rbt.Current_Directory>
/home/malgorzata/Desktop/rDOCK_IFD/Wyniki/5_estrogen_receptor

>  <Rbt.Executable>
rbdock ($Id: //depot/dev/client3/rdock/2013.1/src/exe/rbdock.cxx#4 $)

>  <Rbt.Library>
libRbt.so (2013.1, Build901 2013/11/27)

>  <Rbt.Parameter_File>
/home/malgorzata/Desktop/rDock_2013.1_src/data/scripts/soft_docking.prm

>  <Rbt.Receptor>
cavity.prm

>  <SCORE>
-77.6259

>  <SCORE.INTER>
-15.4278

>  <SCORE.INTER.CONST>
1

>  <SCORE.INTER.POLAR>
-1.07247

>  <SCORE.INTER.REPUL>
0.434393

>  <SCORE.INTER.ROT>
9

>  <SCORE.INTER.VDW>
-28.3534

>  <SCORE.INTER.norm>
-0.531994

>  <SCORE.INTRA>
-1.9227

>  <SCORE.INTRA.DIHEDRAL>
2.44237

>  <SCORE.INTRA.DIHEDRAL.0>
14.7815

>  <SCORE.INTRA.POLAR>
0

>  <SCORE.INTRA.POLAR.0>
0

>  <SCORE.INTRA.REPUL>
0

>  <SCORE.INTRA.REPUL.0>
0

>  <SCORE.INTRA.VDW>
-2.41117

>  <SCORE.INTRA.VDW.0>
-0.0652974

>  <SCORE.INTRA.norm>
-0.0662998

>  <SCORE.RESTR>
0.352013

>  <SCORE.RESTR.CAVITY>
0.352013

>  <SCORE.RESTR.norm>
0.0121384

>  <SCORE.SYSTEM>
-60.6274

>  <SCORE.SYSTEM.CONST>
0

>  <SCORE.SYSTEM.DIHEDRAL>
0.918853

>  <SCORE.SYSTEM.POLAR>
-0.111876

>  <SCORE.SYSTEM.REPUL>
0.258993

>  <SCORE.SYSTEM.VDW>
-62.0014

>  <SCORE.SYSTEM.norm>
-2.0906

>  <SCORE.heavy>
29

>  <SCORE.norm>
-2.67676

$$$$
OHT.pdb
  rDOCK(R)          3D
libRbt.so/2013.1/901 2013/11/27
 30 32  0  0  0  0  0  0  0  0999 V2000
   67.3909   35.1442   76.1124 C   0  0  0  0  0  0
   68.3839   35.6885   75.1225 C   0  0  0  0  0  0
   68.9947   34.5990   74.2658 C   0  0  0  0  0  0
   69.7565   33.5777   75.0476 C   0  0  0  0  0  0
   71.1180   33.7786   75.3592 C   0  0  0  0  0  0
   71.8141   32.8476   76.1307 C   0  0  0  0  0  0
   71.1924   31.7090   76.6043 C   0  0  0  0  0  0
   69.8668   31.4966   76.3091 C   0  0  0  0  0  0
   69.1571   32.4240   75.5379 C   0  0  0  0  0  0
   68.8555   34.5641   72.9078 C   0  0  0  0  0  0
   69.4494   35.5913   71.9754 C   0  0  0  0  0  0
   68.7758   36.8165   71.6764 C   0  0  0  0  0  0
   69.3257   37.7302   70.7658 C   0  0  0  0  0  0
   70.5531   37.4286   70.1461 C   0  0  0  0  0  0
   71.0573   38.3231   69.2498 O   0  0  0  0  0  0
   71.2295   36.2219   70.4363 C   0  0  0  0  0  0
   70.6672   35.3296   71.3404 C   0  0  0  0  0  0
   68.0910   33.5189   72.2205 C   0  0  0  0  0  0
   68.5872   32.2255   72.0771 C   0  0  0  0  0  0
   67.8787   31.2323   71.4615 C   0  0  0  0  0  0
   66.6171   31.5065   70.9586 C   0  0  0  0  0  0
   65.8285   30.5642   70.3629 O   0  0  0  0  0  0
   64.8006   29.9220   71.1111 C   0  0  0  0  0  0
   64.9001   30.4507   72.5165 C   0  0  0  0  0  0
   65.0980   29.4272   73.5059 N   0  0  0  0  0  0
   65.7546   29.9527   74.7039 C   0  0  0  0  0  0
   63.7996   28.8713   73.9038 C   0  0  0  0  0  0
   66.0852   32.8017   71.0826 C   0  0  0  0  0  0
   66.8145   33.7772   71.7027 C   0  0  0  0  0  0
   70.7289   39.2004   69.2281 H   0  0  0  0  0  0
  1  2  1  0  0  0
  2  3  1  0  0  0
  3  4  1  0  0  0
  3 10  1  0  0  0
  4  5  2  0  0  0
  4  9  1  0  0  0
  5  6  1  0  0  0
  6  7  2  0  0  0
  7  8  1  0  0  0
  8  9  2  0  0  0
 10 11  1  0  0  0
 10 18  1  0  0  0
 11 12  2  0  0  0
 11 17  1  0  0  0
 12 13  1  0  0  0
 13 14  2  0  0  0
 14 15  1  0  0  0
 14 16  1  0  0  0
 15 30  1  0  0  0
 16 17  2  0  0  0
 18 19  2  0  0  0
 18 29  1  0  0  0
 19 20  1  0  0  0
 20 21  2  0  0  0
 21 22  1  0  0  0
 21 28  1  0  0  0
 22 23  1  0  0  0
 23 24  1  0  0  0
 24 25  1  0  0  0
 25 26  1  0  0  0
 25 27  1  0  0  0
 28 29  2  0  0  0
M  END
>  <CHROM.0>
-14.38030164,-60.99072862,1.53287727,-129.93467137

>  <CHROM.1>
-61.34066056,-86.88197152,66.20337457,-85.16920346,-74.47259226,16.64265054
98.25146099,-2.87595571,-122.29712696,155.08084177,68.27207070,33.32991157
72.90324214,-0.63532762,0.75962004,2.16403974

>  <FORMUL>
      OHT    C26 H29 N1 O2

>  <HET>
 OHT  A 600      29

>  <HETNAM>
     OHT 4-HYDROXYTAMOXIFEN

>  <Name>
OHT.pdb

>  <RI>
0

>  <Rbt.Current_Directory>
/home/malgorzata/Desktop/rDOCK_IFD/Wyniki/5_estrogen_receptor

>  <Rbt.Executable>
rbdock ($Id: //depot/dev/client3/rdock/2013.1/src/exe/rbdock.cxx#4 $)

>  <Rbt.Library>
libRbt.so (2013.1, Build901 2013/11/27)

>  <Rbt.Parameter_File>
/home/malgorzata/Desktop/rDock_2013.1_src/data/scripts/soft_docking.prm

>  <Rbt.Receptor>
cavity.prm

>  <SCORE>
-76.5868

>  <SCORE.INTER>
-20.0127

>  <SCORE.INTER.CONST>
1

>  <SCORE.INTER.POLAR>
-0.589087

>  <SCORE.INTER.REPUL>
0

>  <SCORE.INTER.ROT>
9

>  <SCORE.INTER.VDW>
-32.4098

>  <SCORE.INTER.norm>
-0.690092

>  <SCORE.INTRA>
3.66412

>  <SCORE.INTRA.DIHEDRAL>
12.2737

>  <SCORE.INTRA.DIHEDRAL.0>
14.7815

>  <SCORE.INTRA.POLAR>
0

>  <SCORE.INTRA.POLAR.0>
0

>  <SCORE.INTRA.REPUL>
0

>  <SCORE.INTRA.REPUL.0>
0

>  <SCORE.INTRA.VDW>
1.20938

>  <SCORE.INTRA.VDW.0>
-0.0652974

>  <SCORE.INTRA.norm>
0.126349

>  <SCORE.RESTR>
0.246547

>  <SCORE.RESTR.CAVITY>
0.246547

>  <SCORE.RESTR.norm>
0.00850162

>  <SCORE.SYSTEM>
-60.4848

>  <SCORE.SYSTEM.CONST>
0

>  <SCORE.SYSTEM.DIHEDRAL>
3.77498

>  <SCORE.SYSTEM.POLAR>
-0.159705

>  <SCORE.SYSTEM.REPUL>
0.142093

>  <SCORE.SYSTEM.VDW>
-62.5397

>  <SCORE.SYSTEM.norm>
-2.08568

>  <SCORE.heavy>
29

>  <SCORE.norm>
-2.64092

$$$$
OHT.pdb
  rDOCK(R)          3D
libRbt.so/2013.1/901 2013/11/27
 30 32  0  0  0  0  0  0  0  0999 V2000
   66.2357   35.8650   71.0714 C   0  0  0  0  0  0
   66.9299   36.3980   72.2946 C   0  0  0  0  0  0
   68.0575   35.4960   72.7519 C   0  0  0  0  0  0
   69.4029   35.9204   72.2575 C   0  0  0  0  0  0
   70.4219   34.9692   72.0383 C   0  0  0  0  0  0
   71.6609   35.3610   71.5304 C   0  0  0  0  0  0
   71.9219   36.6842   71.2334 C   0  0  0  0  0  0
   70.9411   37.6244   71.4422 C   0  0  0  0  0  0
   69.6935   37.2437   71.9492 C   0  0  0  0  0  0
   67.8516   34.4010   73.5412 C   0  0  0  0  0  0
   68.4661   34.2226   74.9079 C   0  0  0  0  0  0
   69.7671   33.6553   75.0810 C   0  0  0  0  0  0
   70.2929   33.4524   76.3651 C   0  0  0  0  0  0
   69.5243   33.8145   77.4875 C   0  0  0  0  0  0
   70.0486   33.5891   78.7252 O   0  0  0  0  0  0
   68.2382   34.3789   77.3284 C   0  0  0  0  0  0
   67.7351   34.5705   76.0478 C   0  0  0  0  0  0
   67.0150   33.2727   73.1213 C   0  0  0  0  0  0
   67.5623   32.1403   72.5231 C   0  0  0  0  0  0
   66.8017   31.0690   72.1478 C   0  0  0  0  0  0
   65.4336   31.0946   72.3665 C   0  0  0  0  0  0
   64.6071   30.0530   72.0557 O   0  0  0  0  0  0
   64.1833   29.8597   70.7096 C   0  0  0  0  0  0
   63.9632   31.2305   70.1291 C   0  0  0  0  0  0
   64.9594   31.6176   69.1683 N   0  0  0  0  0  0
   64.8369   30.8553   67.9249 C   0  0  0  0  0  0
   64.8055   33.0413   68.8478 C   0  0  0  0  0  0
   64.8460   32.2224   72.9653 C   0  0  0  0  0  0
   65.6294   33.2808   73.3313 C   0  0  0  0  0  0
   70.9434   33.8046   78.9013 H   0  0  0  0  0  0
  1  2  1  0  0  0
  2  3  1  0  0  0
  3  4  1  0  0  0
  3 10  1  0  0  0
  4  5  2  0  0  0
  4  9  1  0  0  0
  5  6  1  0  0  0
  6  7  2  0  0  0
  7  8  1  0  0  0
  8  9  2  0  0  0
 10 11  1  0  0  0
 10 18  1  0  0  0
 11 12  2  0  0  0
 11 17  1  0  0  0
 12 13  1  0  0  0
 13 14  2  0  0  0
 14 15  1  0  0  0
 14 16  1  0  0  0
 15 30  1  0  0  0
 16 17  2  0  0  0
 18 19  2  0  0  0
 18 29  1  0  0  0
 19 20  1  0  0  0
 20 21  2  0  0  0
 21 22  1  0  0  0
 21 28  1  0  0  0
 22 23  1  0  0  0
 23 24  1  0  0  0
 24 25  1  0  0  0
 25 26  1  0  0  0
 25 27  1  0  0  0
 28 29  2  0  0  0
M  END
>  <CHROM.0>
-49.70017771,-58.20241973,-117.83201787,29.19512202

>  <CHROM.1>
96.45356482,-150.75801509,-119.69969534,-86.53774841,94.99029269,44.15072954
-79.59424145,-37.37917620,108.23326247,70.57097343,67.58509062,33.65319002
72.76686558,-2.72561689,0.77345014,1.90424204

>  <FORMUL>
      OHT    C26 H29 N1 O2

>  <HET>
 OHT  A 600      29

>  <HETNAM>
     OHT 4-HYDROXYTAMOXIFEN

>  <Name>
OHT.pdb

>  <RI>
0

>  <Rbt.Current_Directory>
/home/malgorzata/Desktop/rDOCK_IFD/Wyniki/5_estrogen_receptor

>  <Rbt.Executable>
rbdock ($Id: //depot/dev/client3/rdock/2013.1/src/exe/rbdock.cxx#4 $)

>  <Rbt.Library>
libRbt.so (2013.1, Build901 2013/11/27)

>  <Rbt.Parameter_File>
/home/malgorzata/Desktop/rDock_2013.1_src/data/scripts/soft_docking.prm

>  <Rbt.Receptor>
cavity.prm

>  <SCORE>
-78.0757

>  <SCORE.INTER>
-19.5835

>  <SCORE.INTER.CONST>
1

>  <SCORE.INTER.POLAR>
-0.0043823

>  <SCORE.INTER.REPUL>
0

>  <SCORE.INTER.ROT>
9

>  <SCORE.INTER.VDW>
-33.9686

>  <SCORE.INTER.norm>
-0.675293

>  <SCORE.INTRA>
0.385217

>  <SCORE.INTRA.DIHEDRAL>
7.00124

>  <SCORE.INTRA.DIHEDRAL.0>
14.7815

>  <SCORE.INTRA.POLAR>
0

>  <SCORE.INTRA.POLAR.0>
0

>  <SCORE.INTRA.REPUL>
0

>  <SCORE.INTRA.REPUL.0>
0

>  <SCORE.INTRA.VDW>
-1.01503

>  <SCORE.INTRA.VDW.0>
-0.0652974

>  <SCORE.INTRA.norm>
0.0132833

>  <SCORE.RESTR>
0.370681

>  <SCORE.RESTR.CAVITY>
0.370681

>  <SCORE.RESTR.norm>
0.0127821

>  <SCORE.SYSTEM>
-59.2481

>  <SCORE.SYSTEM.CONST>
0

>  <SCORE.SYSTEM.DIHEDRAL>
2.0997

>  <SCORE.SYSTEM.POLAR>
-0.296387

>  <SCORE.SYSTEM.REPUL>
0.0350395

>  <SCORE.SYSTEM.VDW>
-59.4655

>  <SCORE.SYSTEM.norm>
-2.04304

>  <SCORE.heavy>
29

>  <SCORE.norm>
-2.69227

$$$$
OHT.pdb
  rDOCK(R)          3D
libRbt.so/2013.1/901 2013/11/27
 30 32  0  0  0  0  0  0  0  0999 V2000
   69.5579   30.8916   72.1748 C   0  0  0  0  0  0
   68.8686   31.8904   71.2863 C   0  0  0  0  0  0
   67.7870   32.6575   72.0183 C   0  0  0  0  0  0
   66.5893   31.8297   72.3571 C   0  0  0  0  0  0
   65.7626   31.3096   71.3387 C   0  0  0  0  0  0
   64.6737   30.4966   71.6547 C   0  0  0  0  0  0
   64.3762   30.1840   72.9666 C   0  0  0  0  0  0
   65.1702   30.6833   73.9715 C   0  0  0  0  0  0
   66.2665   31.4982   73.6673 C   0  0  0  0  0  0
   67.9065   33.9809   72.3332 C   0  0  0  0  0  0
   67.6232   35.1039   71.3658 C   0  0  0  0  0  0
   68.6633   35.7243   70.6057 C   0  0  0  0  0  0
   68.3799   36.8008   69.7530 C   0  0  0  0  0  0
   67.0556   37.2672   69.6516 C   0  0  0  0  0  0
   66.8087   38.3275   68.8317 O   0  0  0  0  0  0
   66.0188   36.6597   70.3960 C   0  0  0  0  0  0
   66.3207   35.5953   71.2360 C   0  0  0  0  0  0
   68.3436   34.4401   73.6551 C   0  0  0  0  0  0
   69.1920   33.6741   74.4509 C   0  0  0  0  0  0
   69.6296   34.0967   75.6745 C   0  0  0  0  0  0
   69.2247   35.3322   76.1536 C   0  0  0  0  0  0
   69.6439   35.8452   77.3476 O   0  0  0  0  0  0
   69.1431   35.3063   78.5673 C   0  0  0  0  0  0
   68.0159   36.2039   79.0009 C   0  0  0  0  0  0
   67.1225   36.5654   77.9346 N   0  0  0  0  0  0
   66.0688   35.5666   77.7496 C   0  0  0  0  0  0
   66.4844   37.8503   78.2430 C   0  0  0  0  0  0
   68.3662   36.1313   75.3788 C   0  0  0  0  0  0
   67.9429   35.6852   74.1583 C   0  0  0  0  0  0
   66.4341   38.1873   67.9843 H   0  0  0  0  0  0
  1  2  1  0  0  0
  2  3  1  0  0  0
  3  4  1  0  0  0
  3 10  1  0  0  0
  4  5  2  0  0  0
  4  9  1  0  0  0
  5  6  1  0  0  0
  6  7  2  0  0  0
  7  8  1  0  0  0
  8  9  2  0  0  0
 10 11  1  0  0  0
 10 18  1  0  0  0
 11 12  2  0  0  0
 11 17  1  0  0  0
 12 13  1  0  0  0
 13 14  2  0  0  0
 14 15  1  0  0  0
 14 16  1  0  0  0
 15 30  1  0  0  0
 16 17  2  0  0  0
 18 19  2  0  0  0
 18 29  1  0  0  0
 19 20  1  0  0  0
 20 21  2  0  0  0
 21 22  1  0  0  0
 21 28  1  0  0  0
 22 23  1  0  0  0
 23 24  1  0  0  0
 24 25  1  0  0  0
 25 26  1  0  0  0
 25 27  1  0  0  0
 28 29  2  0  0  0
M  END
>  <CHROM.0>
24.80244101,-58.08800011,16.92625979,103.65718138

>  <CHROM.1>
-70.28068147,-65.90049667,81.82650637,-95.52928687,28.67046719,101.77672410
-73.03376817,-97.20594258,44.49314225,86.45082374,67.49455910,34.45749231
73.64412198,2.40721910,-1.34451124,-1.08339560

>  <FORMUL>
      OHT    C26 H29 N1 O2

>  <HET>
 OHT  A 600      29

>  <HETNAM>
     OHT 4-HYDROXYTAMOXIFEN

>  <Name>
OHT.pdb

>  <RI>
0

>  <Rbt.Current_Directory>
/home/malgorzata/Desktop/rDOCK_IFD/Wyniki/5_estrogen_receptor

>  <Rbt.Executable>
rbdock ($Id: //depot/dev/client3/rdock/2013.1/src/exe/rbdock.cxx#4 $)

>  <Rbt.Library>
libRbt.so (2013.1, Build901 2013/11/27)

>  <Rbt.Parameter_File>
/home/malgorzata/Desktop/rDock_2013.1_src/data/scripts/soft_docking.prm

>  <Rbt.Receptor>
cavity.prm

>  <SCORE>
-73.7326

>  <SCORE.INTER>
-14.5872

>  <SCORE.INTER.CONST>
1

>  <SCORE.INTER.POLAR>
-0.12101

>  <SCORE.INTER.REPUL>
0

>  <SCORE.INTER.ROT>
9

>  <SCORE.INTER.VDW>
-28.5757

>  <SCORE.INTER.norm>
-0.503006

>  <SCORE.INTRA>
-2.08152

>  <SCORE.INTRA.DIHEDRAL>
9.39499

>  <SCORE.INTRA.DIHEDRAL.0>
14.7815

>  <SCORE.INTRA.POLAR>
0

>  <SCORE.INTRA.POLAR.0>
0

>  <SCORE.INTRA.REPUL>
0

>  <SCORE.INTRA.REPUL.0>
0

>  <SCORE.INTRA.VDW>
-3.96052

>  <SCORE.INTRA.VDW.0>
-0.0652974

>  <SCORE.INTRA.norm>
-0.0717767

>  <SCORE.RESTR>
0.160297

>  <SCORE.RESTR.CAVITY>
0.160297

>  <SCORE.RESTR.norm>
0.0055275

>  <SCORE.SYSTEM>
-57.2242

>  <SCORE.SYSTEM.CONST>
0

>  <SCORE.SYSTEM.DIHEDRAL>
5.45291

>  <SCORE.SYSTEM.POLAR>
-0.296797

>  <SCORE.SYSTEM.REPUL>
0.0299349

>  <SCORE.SYSTEM.VDW>
-59.0912

>  <SCORE.SYSTEM.norm>
-1.97325

>  <SCORE.heavy>
29

>  <SCORE.norm>
-2.5425

$$$$
OHT.pdb
  rDOCK(R)          3D
libRbt.so/2013.1/901 2013/11/27
 30 32  0  0  0  0  0  0  0  0999 V2000
   64.6195   35.0509   72.4498 C   0  0  0  0  0  0
   65.7665   36.0130   72.3048 C   0  0  0  0  0  0
   66.8344   35.4936   71.3647 C   0  0  0  0  0  0
   67.4680   36.5592   70.5294 C   0  0  0  0  0  0
   66.7195   37.2462   69.5503 C   0  0  0  0  0  0
   67.2992   38.2740   68.8058 C   0  0  0  0  0  0
   68.6154   38.6415   69.0047 C   0  0  0  0  0  0
   69.3598   37.9818   69.9536 C   0  0  0  0  0  0
   68.7892   36.9507   70.7083 C   0  0  0  0  0  0
   67.1770   34.1735   71.2957 C   0  0  0  0  0  0
   66.8945   33.2931   70.1031 C   0  0  0  0  0  0
   67.6930   32.1442   69.8085 C   0  0  0  0  0  0
   67.4409   31.3734   68.6644 C   0  0  0  0  0  0
   66.3892   31.7429   67.8048 C   0  0  0  0  0  0
   66.1766   30.9899   66.6889 O   0  0  0  0  0  0
   65.5914   32.8749   68.0876 C   0  0  0  0  0  0
   65.8583   33.6259   69.2254 C   0  0  0  0  0  0
   67.8464   33.4744   72.3968 C   0  0  0  0  0  0
   67.1249   32.8423   73.4068 C   0  0  0  0  0  0
   67.7310   32.1650   74.4271 C   0  0  0  0  0  0
   69.1141   32.0935   74.4706 C   0  0  0  0  0  0
   69.7974   31.4071   75.4332 O   0  0  0  0  0  0
   70.7836   32.0733   76.2158 C   0  0  0  0  0  0
   70.1725   32.3000   77.5721 C   0  0  0  0  0  0
   70.2032   31.1403   78.4206 N   0  0  0  0  0  0
   69.5011   31.3750   79.6831 C   0  0  0  0  0  0
   69.5526   30.0156   77.7387 C   0  0  0  0  0  0
   69.8749   32.7220   73.4697 C   0  0  0  0  0  0
   69.2440   33.3932   72.4600 C   0  0  0  0  0  0
   66.7863   30.3183   66.4538 H   0  0  0  0  0  0
  1  2  1  0  0  0
  2  3  1  0  0  0
  3  4  1  0  0  0
  3 10  1  0  0  0
  4  5  2  0  0  0
  4  9  1  0  0  0
  5  6  1  0  0  0
  6  7  2  0  0  0
  7  8  1  0  0  0
  8  9  2  0  0  0
 10 11  1  0  0  0
 10 18  1  0  0  0
 11 12  2  0  0  0
 11 17  1  0  0  0
 12 13  1  0  0  0
 13 14  2  0  0  0
 14 15  1  0  0  0
 14 16  1  0  0  0
 15 30  1  0  0  0
 16 17  2  0  0  0
 18 19  2  0  0  0
 18 29  1  0  0  0
 19 20  1  0  0  0
 20 21  2  0  0  0
 21 22  1  0  0  0
 21 28  1  0  0  0
 22 23  1  0  0  0
 23 24  1  0  0  0
 24 25  1  0  0  0
 25 26  1  0  0  0
 25 27  1  0  0  0
 28 29  2  0  0  0
M  END
>  <CHROM.0>
-121.57433979,-57.81916307,55.45217374,-12.41753269

>  <CHROM.1>
143.46685128,-66.44461094,111.65763233,153.88081105,89.21006176,-7.75325779
-124.53033241,104.96434591,79.99322819,-175.27400007,67.93459002,33.62833167
72.23278152,-2.52786729,1.19457905,2.90808850

>  <FORMUL>
      OHT    C26 H29 N1 O2

>  <HET>
 OHT  A 600      29

>  <HETNAM>
     OHT 4-HYDROXYTAMOXIFEN

>  <Name>
OHT.pdb

>  <RI>
0

>  <Rbt.Current_Directory>
/home/malgorzata/Desktop/rDOCK_IFD/Wyniki/5_estrogen_receptor

>  <Rbt.Executable>
rbdock ($Id: //depot/dev/client3/rdock/2013.1/src/exe/rbdock.cxx#4 $)

>  <Rbt.Library>
libRbt.so (2013.1, Build901 2013/11/27)

>  <Rbt.Parameter_File>
/home/malgorzata/Desktop/rDock_2013.1_src/data/scripts/soft_docking.prm

>  <Rbt.Receptor>
cavity.prm

>  <SCORE>
-77.3196

>  <SCORE.INTER>
-22.5794

>  <SCORE.INTER.CONST>
1

>  <SCORE.INTER.POLAR>
0

>  <SCORE.INTER.REPUL>
0

>  <SCORE.INTER.ROT>
9

>  <SCORE.INTER.VDW>
-36.9794

>  <SCORE.INTER.norm>
-0.7786

>  <SCORE.INTRA>
3.12619

>  <SCORE.INTRA.DIHEDRAL>
3.57207

>  <SCORE.INTRA.DIHEDRAL.0>
14.7815

>  <SCORE.INTRA.POLAR>
0

>  <SCORE.INTRA.POLAR.0>
0

>  <SCORE.INTRA.REPUL>
0

>  <SCORE.INTRA.REPUL.0>
0

>  <SCORE.INTRA.VDW>
2.41177

>  <SCORE.INTRA.VDW.0>
-0.0652974

>  <SCORE.INTRA.norm>
0.1078

>  <SCORE.RESTR>
0.253215

>  <SCORE.RESTR.CAVITY>
0.253215

>  <SCORE.RESTR.norm>
0.00873155

>  <SCORE.SYSTEM>
-58.1196

>  <SCORE.SYSTEM.CONST>
0

>  <SCORE.SYSTEM.DIHEDRAL>
1.17641

>  <SCORE.SYSTEM.POLAR>
-0.29556

>  <SCORE.SYSTEM.REPUL>
0.0179057

>  <SCORE.SYSTEM.VDW>
-57.7924

>  <SCORE.SYSTEM.norm>
-2.00412

>  <SCORE.heavy>
29

>  <SCORE.norm>
-2.66619

$$$$
