HMD.pdb
  rDOCK(R)          3D
libRbt.so/2013.1/901 2013/11/27
 24 26  0  0  0  0  0  0  0  0999 V2000
   -3.1646   34.2165   12.9086 Br  0  0  0  0  0  0
   -5.7684   29.5611   12.4351 O   0  0  0  0  0  0
   -1.2974   28.7992    6.6767 O   0  0  0  0  0  0
   -4.0842   31.6748   12.2983 N   0  0  0  0  0  0
   -4.4489   28.2437   11.1055 N   0  0  0  0  0  0
    0.0589   30.6567    6.6874 N   0  0  0  0  0  0
   -0.8477   31.7664    8.4161 N   0  0  0  0  0  0
    0.9649   32.7352    7.3289 N   0  0  0  0  0  0
   -3.3023   32.6766   11.8902 C   0  0  0  0  0  0
   -2.6873   32.3740   10.7110 C   0  0  0  0  0  0
   -3.1156   31.0648   10.3629 C   0  0  0  0  0  0
   -4.0100   30.6659   11.4036 C   0  0  0  0  0  0
   -4.7947   29.4542   11.6779 C   0  0  0  0  0  0
   -3.3323   27.9507   10.1907 C   0  0  0  0  0  0
   -3.3181   28.8313    8.9543 C   0  0  0  0  0  0
   -2.6391   30.1779    9.1878 C   0  0  0  0  0  0
   -1.5950   30.5809    8.3483 C   0  0  0  0  0  0
   -0.9569   29.8924    7.1546 C   0  0  0  0  0  0
    0.1002   31.7477    7.4612 C   0  0  0  0  0  0
   -4.6275   31.6719   13.1193 H   0  0  0  0  0  0
   -5.0231   27.4791   11.3396 H   0  0  0  0  0  0
   -0.9939   32.4964    9.0603 H   0  0  0  0  0  0
    1.6495   32.6987    6.6223 H   0  0  0  0  0  0
    0.9255   33.5086    7.9367 H   0  0  0  0  0  0
  1  9  1  0  0  0
  2 13  2  0  0  0
  3 18  2  0  0  0
  4  9  1  0  0  0
  4 12  1  0  0  0
  4 20  1  0  0  0
  5 13  1  0  0  0
  5 14  1  0  0  0
  5 21  1  0  0  0
  6 18  1  0  0  0
  6 19  2  0  0  0
  7 17  1  0  0  0
  7 19  1  0  0  0
  7 22  1  0  0  0
  8 19  1  0  0  0
  8 23  1  0  0  0
  8 24  1  0  0  0
  9 10  2  0  0  0
 10 11  1  0  0  0
 11 12  2  0  0  0
 11 16  1  0  0  0
 12 13  1  0  0  0
 14 15  1  0  0  0
 15 16  1  0  0  0
 16 17  2  0  0  0
 17 18  1  0  0  0
M  END
>  <CHROM.0>
-16.49405538,117.64980890,159.16698742,78.18762318,153.66874041,-61.11066012

>  <CHROM.1>
-2.66353895,31.39035087,10.38568226,-2.20425210,-0.78875011,-2.56056396

>  <FORMUL>
      HMD    C11 H10 Br1 N5 O2

>  <HET>
 HMD  A 400      19

>  <HETNAM>
     HMD 4-(5-AMINO-4-OXO-4H-PYRAZOL-3-YL)-2-BROMO-4,5,6,7-TETRA
   2 HMD HYDRO-3AH-PYRROLO[2,3-C]AZEPIN-8-ONE

>  <HETSYN>
     HMD HYMENIALDISINE

>  <Name>
HMD.pdb

>  <RI>
3.99621e+07

>  <Rbt.Current_Directory>
/home/malgorzata/Desktop/rDOCK_IFD/Wyniki/2_CDK2

>  <Rbt.Executable>
rbdock ($Id: //depot/dev/client3/rdock/2013.1/src/exe/rbdock.cxx#4 $)

>  <Rbt.Library>
libRbt.so (2013.1, Build901 2013/11/27)

>  <Rbt.Parameter_File>
/home/malgorzata/Desktop/rDock_2013.1_src/data/scripts/soft_docking.prm

>  <Rbt.Receptor>
cavity.prm

>  <SCORE>
-30.8179

>  <SCORE.INTER>
-31.7745

>  <SCORE.INTER.CONST>
1

>  <SCORE.INTER.POLAR>
-0.891768

>  <SCORE.INTER.REPUL>
0

>  <SCORE.INTER.ROT>
0

>  <SCORE.INTER.VDW>
-34.1425

>  <SCORE.INTER.norm>
-1.67234

>  <SCORE.INTRA>
0

>  <SCORE.INTRA.DIHEDRAL>
0

>  <SCORE.INTRA.DIHEDRAL.0>
0

>  <SCORE.INTRA.POLAR>
0

>  <SCORE.INTRA.POLAR.0>
0

>  <SCORE.INTRA.REPUL>
0

>  <SCORE.INTRA.REPUL.0>
0

>  <SCORE.INTRA.VDW>
0

>  <SCORE.INTRA.VDW.0>
0

>  <SCORE.INTRA.norm>
0

>  <SCORE.RESTR>
0

>  <SCORE.RESTR.CAVITY>
0

>  <SCORE.RESTR.norm>
0

>  <SCORE.SYSTEM>
0.956652

>  <SCORE.SYSTEM.CONST>
0

>  <SCORE.SYSTEM.DIHEDRAL>
2.0244

>  <SCORE.SYSTEM.POLAR>
-0.619677

>  <SCORE.SYSTEM.REPUL>
0.8

>  <SCORE.SYSTEM.VDW>
-1.94865

>  <SCORE.SYSTEM.norm>
0.0503501

>  <SCORE.heavy>
19

>  <SCORE.norm>
-1.62199

$$$$
HMD.pdb
  rDOCK(R)          3D
libRbt.so/2013.1/901 2013/11/27
 24 26  0  0  0  0  0  0  0  0999 V2000
   -6.0778   32.9261   14.2738 Br  0  0  0  0  0  0
   -2.2443   33.2730   10.5509 O   0  0  0  0  0  0
   -3.2469   26.0168   10.2840 O   0  0  0  0  0  0
   -4.2534   32.5650   12.2196 N   0  0  0  0  0  0
   -2.3679   31.3278    9.3486 N   0  0  0  0  0  0
   -4.9659   25.5685   11.7450 N   0  0  0  0  0  0
   -5.3026   27.6319   12.5639 N   0  0  0  0  0  0
   -6.6504   25.9111   13.3566 N   0  0  0  0  0  0
   -5.0407   31.9410   13.0985 C   0  0  0  0  0  0
   -4.9475   30.5863   12.9699 C   0  0  0  0  0  0
   -4.0312   30.3489   11.9104 C   0  0  0  0  0  0
   -3.6125   31.6423   11.4700 C   0  0  0  0  0  0
   -2.6996   32.1284   10.4263 C   0  0  0  0  0  0
   -2.8173   29.9560    9.0563 C   0  0  0  0  0  0
   -2.5549   28.9805   10.1895 C   0  0  0  0  0  0
   -3.6437   29.0001   11.2585 C   0  0  0  0  0  0
   -4.2786   27.8072   11.6210 C   0  0  0  0  0  0
   -4.0801   26.3853   11.1264 C   0  0  0  0  0  0
   -5.6762   26.3392   12.5769 C   0  0  0  0  0  0
   -4.1556   33.5407   12.1320 H   0  0  0  0  0  0
   -1.7520   31.7262    8.6921 H   0  0  0  0  0  0
   -5.6869   28.3422   13.1269 H   0  0  0  0  0  0
   -6.9056   24.9602   13.3484 H   0  0  0  0  0  0
   -7.1221   26.5424   13.9467 H   0  0  0  0  0  0
  1  9  1  0  0  0
  2 13  2  0  0  0
  3 18  2  0  0  0
  4  9  1  0  0  0
  4 12  1  0  0  0
  4 20  1  0  0  0
  5 13  1  0  0  0
  5 14  1  0  0  0
  5 21  1  0  0  0
  6 18  1  0  0  0
  6 19  2  0  0  0
  7 17  1  0  0  0
  7 19  1  0  0  0
  7 22  1  0  0  0
  8 19  1  0  0  0
  8 23  1  0  0  0
  8 24  1  0  0  0
  9 10  2  0  0  0
 10 11  1  0  0  0
 11 12  2  0  0  0
 11 16  1  0  0  0
 12 13  1  0  0  0
 14 15  1  0  0  0
 15 16  1  0  0  0
 16 17  2  0  0  0
 17 18  1  0  0  0
M  END
>  <CHROM.0>
-107.57145839,-29.29741976,31.84359098,34.16152861,144.49375270,-61.11066012

>  <CHROM.1>
-4.52254369,30.18296733,12.11516875,1.77026907,0.83220268,0.17359710

>  <FORMUL>
      HMD    C11 H10 Br1 N5 O2

>  <HET>
 HMD  A 400      19

>  <HETNAM>
     HMD 4-(5-AMINO-4-OXO-4H-PYRAZOL-3-YL)-2-BROMO-4,5,6,7-TETRA
   2 HMD HYDRO-3AH-PYRROLO[2,3-C]AZEPIN-8-ONE

>  <HETSYN>
     HMD HYMENIALDISINE

>  <Name>
HMD.pdb

>  <RI>
3.99621e+07

>  <Rbt.Current_Directory>
/home/malgorzata/Desktop/rDOCK_IFD/Wyniki/2_CDK2

>  <Rbt.Executable>
rbdock ($Id: //depot/dev/client3/rdock/2013.1/src/exe/rbdock.cxx#4 $)

>  <Rbt.Library>
libRbt.so (2013.1, Build901 2013/11/27)

>  <Rbt.Parameter_File>
/home/malgorzata/Desktop/rDock_2013.1_src/data/scripts/soft_docking.prm

>  <Rbt.Receptor>
cavity.prm

>  <SCORE>
-26.8406

>  <SCORE.INTER>
-28.1133

>  <SCORE.INTER.CONST>
1

>  <SCORE.INTER.POLAR>
-0.728765

>  <SCORE.INTER.REPUL>
0.0728277

>  <SCORE.INTER.ROT>
0

>  <SCORE.INTER.VDW>
-31.3996

>  <SCORE.INTER.norm>
-1.47965

>  <SCORE.INTRA>
0

>  <SCORE.INTRA.DIHEDRAL>
0

>  <SCORE.INTRA.DIHEDRAL.0>
0

>  <SCORE.INTRA.POLAR>
0

>  <SCORE.INTRA.POLAR.0>
0

>  <SCORE.INTRA.REPUL>
0

>  <SCORE.INTRA.REPUL.0>
0

>  <SCORE.INTRA.VDW>
0

>  <SCORE.INTRA.VDW.0>
0

>  <SCORE.INTRA.norm>
0

>  <SCORE.RESTR>
0

>  <SCORE.RESTR.CAVITY>
0

>  <SCORE.RESTR.norm>
0

>  <SCORE.SYSTEM>
1.27267

>  <SCORE.SYSTEM.CONST>
0

>  <SCORE.SYSTEM.DIHEDRAL>
2.034

>  <SCORE.SYSTEM.POLAR>
-0.619677

>  <SCORE.SYSTEM.REPUL>
0.8

>  <SCORE.SYSTEM.VDW>
-1.63743

>  <SCORE.SYSTEM.norm>
0.0669827

>  <SCORE.heavy>
19

>  <SCORE.norm>
-1.41267

$$$$
HMD.pdb
  rDOCK(R)          3D
libRbt.so/2013.1/901 2013/11/27
 24 26  0  0  0  0  0  0  0  0999 V2000
   -3.3416   33.9903   13.2335 Br  0  0  0  0  0  0
   -5.7222   29.2587   12.4456 O   0  0  0  0  0  0
   -1.2466   29.1076    6.6425 O   0  0  0  0  0  0
   -4.1416   31.4551   12.4517 N   0  0  0  0  0  0
   -4.3474   28.1001   11.0271 N   0  0  0  0  0  0
    0.0195   31.0230    6.7787 N   0  0  0  0  0  0
   -0.9311   31.9671    8.5806 N   0  0  0  0  0  0
    0.8281   33.0938    7.5599 N   0  0  0  0  0  0
   -3.4103   32.5189   12.1122 C   0  0  0  0  0  0
   -2.7870   32.3274   10.9142 C   0  0  0  0  0  0
   -3.1539   31.0260   10.4777 C   0  0  0  0  0  0
   -4.0234   30.5144   11.4899 C   0  0  0  0  0  0
   -4.7480   29.2506   11.6816 C   0  0  0  0  0  0
   -3.2224   27.9242   10.0929 C   0  0  0  0  0  0
   -3.2559   28.8870    8.9197 C   0  0  0  0  0  0
   -2.6410   30.2455    9.2441 C   0  0  0  0  0  0
   -1.6212   30.7545    8.4327 C   0  0  0  0  0  0
   -0.9565   30.1806    7.1938 C   0  0  0  0  0  0
    0.0122   32.0592    7.6254 C   0  0  0  0  0  0
   -4.6803   31.3701   13.2713 H   0  0  0  0  0  0
   -4.8834   27.2946   11.2091 H   0  0  0  0  0  0
   -1.1090   32.6434    9.2735 H   0  0  0  0  0  0
    1.5104   33.1386    6.8515 H   0  0  0  0  0  0
    0.7546   33.8211    8.2193 H   0  0  0  0  0  0
  1  9  1  0  0  0
  2 13  2  0  0  0
  3 18  2  0  0  0
  4  9  1  0  0  0
  4 12  1  0  0  0
  4 20  1  0  0  0
  5 13  1  0  0  0
  5 14  1  0  0  0
  5 21  1  0  0  0
  6 18  1  0  0  0
  6 19  2  0  0  0
  7 17  1  0  0  0
  7 19  1  0  0  0
  7 22  1  0  0  0
  8 19  1  0  0  0
  8 23  1  0  0  0
  8 24  1  0  0  0
  9 10  2  0  0  0
 10 11  1  0  0  0
 11 12  2  0  0  0
 11 16  1  0  0  0
 12 13  1  0  0  0
 14 15  1  0  0  0
 15 16  1  0  0  0
 16 17  2  0  0  0
 17 18  1  0  0  0
M  END
>  <CHROM.0>
157.63202357,-35.51883161,-98.60265537,119.34005730,115.13857764,-61.11066012

>  <CHROM.1>
-2.71778556,31.37058900,10.52219480,-2.25899001,-0.81811432,-2.53143990

>  <FORMUL>
      HMD    C11 H10 Br1 N5 O2

>  <HET>
 HMD  A 400      19

>  <HETNAM>
     HMD 4-(5-AMINO-4-OXO-4H-PYRAZOL-3-YL)-2-BROMO-4,5,6,7-TETRA
   2 HMD HYDRO-3AH-PYRROLO[2,3-C]AZEPIN-8-ONE

>  <HETSYN>
     HMD HYMENIALDISINE

>  <Name>
HMD.pdb

>  <RI>
3.99621e+07

>  <Rbt.Current_Directory>
/home/malgorzata/Desktop/rDOCK_IFD/Wyniki/2_CDK2

>  <Rbt.Executable>
rbdock ($Id: //depot/dev/client3/rdock/2013.1/src/exe/rbdock.cxx#4 $)

>  <Rbt.Library>
libRbt.so (2013.1, Build901 2013/11/27)

>  <Rbt.Parameter_File>
/home/malgorzata/Desktop/rDock_2013.1_src/data/scripts/soft_docking.prm

>  <Rbt.Receptor>
cavity.prm

>  <SCORE>
-28.7142

>  <SCORE.INTER>
-30.4844

>  <SCORE.INTER.CONST>
1

>  <SCORE.INTER.POLAR>
-0.792815

>  <SCORE.INTER.REPUL>
0

>  <SCORE.INTER.ROT>
0

>  <SCORE.INTER.VDW>
-33.1888

>  <SCORE.INTER.norm>
-1.60444

>  <SCORE.INTRA>
0

>  <SCORE.INTRA.DIHEDRAL>
0

>  <SCORE.INTRA.DIHEDRAL.0>
0

>  <SCORE.INTRA.POLAR>
0

>  <SCORE.INTRA.POLAR.0>
0

>  <SCORE.INTRA.REPUL>
0

>  <SCORE.INTRA.REPUL.0>
0

>  <SCORE.INTRA.VDW>
0

>  <SCORE.INTRA.VDW.0>
0

>  <SCORE.INTRA.norm>
0

>  <SCORE.RESTR>
0.282209

>  <SCORE.RESTR.CAVITY>
0.0564419

>  <SCORE.RESTR.norm>
0.0148531

>  <SCORE.SYSTEM>
1.488

>  <SCORE.SYSTEM.CONST>
0

>  <SCORE.SYSTEM.DIHEDRAL>
2.03579

>  <SCORE.SYSTEM.POLAR>
-0.509222

>  <SCORE.SYSTEM.REPUL>
0.8

>  <SCORE.SYSTEM.VDW>
-1.79854

>  <SCORE.SYSTEM.norm>
0.0783159

>  <SCORE.heavy>
19

>  <SCORE.norm>
-1.51127

$$$$
HMD.pdb
  rDOCK(R)          3D
libRbt.so/2013.1/901 2013/11/27
 24 26  0  0  0  0  0  0  0  0999 V2000
   -5.9883   33.0264   13.7404 Br  0  0  0  0  0  0
   -1.9842   32.6287   10.2070 O   0  0  0  0  0  0
   -3.3923   25.4722   10.9358 O   0  0  0  0  0  0
   -4.1010   32.2759   11.8555 N   0  0  0  0  0  0
   -2.1681   30.5373    9.2923 N   0  0  0  0  0  0
   -5.1957   25.3308   12.3564 N   0  0  0  0  0  0
   -5.4475   27.5063   12.8517 N   0  0  0  0  0  0
   -6.9254   25.9910   13.8139 N   0  0  0  0  0  0
   -4.9602   31.8283   12.7735 C   0  0  0  0  0  0
   -4.9400   30.4664   12.8462 C   0  0  0  0  0  0
   -3.9941   30.0300   11.8800 C   0  0  0  0  0  0
   -3.4828   31.2220   11.2801 C   0  0  0  0  0  0
   -2.4991   31.5029   10.2253 C   0  0  0  0  0  0
   -2.6831   29.1621    9.1778 C   0  0  0  0  0  0
   -2.5266   28.3510   10.4514 C   0  0  0  0  0  0
   -3.6575   28.5823   11.4496 C   0  0  0  0  0  0
   -4.3754   27.4893   11.9469 C   0  0  0  0  0  0
   -4.2382   26.0020   11.6728 C   0  0  0  0  0  0
   -5.8954   26.2502   13.0315 C   0  0  0  0  0  0
   -3.9433   33.2220   11.6335 H   0  0  0  0  0  0
   -1.5025   30.8034    8.6176 H   0  0  0  0  0  0
   -5.8140   28.3101   13.2863 H   0  0  0  0  0  0
   -7.2346   25.0635   13.9296 H   0  0  0  0  0  0
   -7.3848   26.7251   14.2821 H   0  0  0  0  0  0
  1  9  1  0  0  0
  2 13  2  0  0  0
  3 18  2  0  0  0
  4  9  1  0  0  0
  4 12  1  0  0  0
  4 20  1  0  0  0
  5 13  1  0  0  0
  5 14  1  0  0  0
  5 21  1  0  0  0
  6 18  1  0  0  0
  6 19  2  0  0  0
  7 17  1  0  0  0
  7 19  1  0  0  0
  7 22  1  0  0  0
  8 19  1  0  0  0
  8 23  1  0  0  0
  8 24  1  0  0  0
  9 10  2  0  0  0
 10 11  1  0  0  0
 11 12  2  0  0  0
 11 16  1  0  0  0
 12 13  1  0  0  0
 14 15  1  0  0  0
 15 16  1  0  0  0
 16 17  2  0  0  0
 17 18  1  0  0  0
M  END
>  <CHROM.0>
164.66003155,63.02649996,33.74739318,-96.31353636,159.40267962,-61.11066012

>  <CHROM.1>
-4.50263938,29.92110767,12.08113013,1.70069125,0.77845695,0.07795380

>  <FORMUL>
      HMD    C11 H10 Br1 N5 O2

>  <HET>
 HMD  A 400      19

>  <HETNAM>
     HMD 4-(5-AMINO-4-OXO-4H-PYRAZOL-3-YL)-2-BROMO-4,5,6,7-TETRA
   2 HMD HYDRO-3AH-PYRROLO[2,3-C]AZEPIN-8-ONE

>  <HETSYN>
     HMD HYMENIALDISINE

>  <Name>
HMD.pdb

>  <RI>
3.99621e+07

>  <Rbt.Current_Directory>
/home/malgorzata/Desktop/rDOCK_IFD/Wyniki/2_CDK2

>  <Rbt.Executable>
rbdock ($Id: //depot/dev/client3/rdock/2013.1/src/exe/rbdock.cxx#4 $)

>  <Rbt.Library>
libRbt.so (2013.1, Build901 2013/11/27)

>  <Rbt.Parameter_File>
/home/malgorzata/Desktop/rDock_2013.1_src/data/scripts/soft_docking.prm

>  <Rbt.Receptor>
cavity.prm

>  <SCORE>
-28.1779

>  <SCORE.INTER>
-29.165

>  <SCORE.INTER.CONST>
1

>  <SCORE.INTER.POLAR>
-0.99584

>  <SCORE.INTER.REPUL>
0

>  <SCORE.INTER.ROT>
0

>  <SCORE.INTER.VDW>
-31.1792

>  <SCORE.INTER.norm>
-1.535

>  <SCORE.INTRA>
0

>  <SCORE.INTRA.DIHEDRAL>
0

>  <SCORE.INTRA.DIHEDRAL.0>
0

>  <SCORE.INTRA.POLAR>
0

>  <SCORE.INTRA.POLAR.0>
0

>  <SCORE.INTRA.REPUL>
0

>  <SCORE.INTRA.REPUL.0>
0

>  <SCORE.INTRA.VDW>
0

>  <SCORE.INTRA.VDW.0>
0

>  <SCORE.INTRA.norm>
0

>  <SCORE.RESTR>
0

>  <SCORE.RESTR.CAVITY>
0

>  <SCORE.RESTR.norm>
0

>  <SCORE.SYSTEM>
0.98717

>  <SCORE.SYSTEM.CONST>
0

>  <SCORE.SYSTEM.DIHEDRAL>
2.02978

>  <SCORE.SYSTEM.POLAR>
-0.619677

>  <SCORE.SYSTEM.REPUL>
0.8

>  <SCORE.SYSTEM.VDW>
-1.92082

>  <SCORE.SYSTEM.norm>
0.0519563

>  <SCORE.heavy>
19

>  <SCORE.norm>
-1.48305

$$$$
HMD.pdb
  rDOCK(R)          3D
libRbt.so/2013.1/901 2013/11/27
 24 26  0  0  0  0  0  0  0  0999 V2000
   -2.7989   34.5690   13.2235 Br  0  0  0  0  0  0
   -6.0258   30.3133   12.8320 O   0  0  0  0  0  0
   -2.0005   29.0743    6.8327 O   0  0  0  0  0  0
   -4.0821   32.1854   12.6316 N   0  0  0  0  0  0
   -4.9656   28.8578   11.4170 N   0  0  0  0  0  0
   -0.4080   30.7334    6.7940 N   0  0  0  0  0  0
   -1.0670   31.9201    8.5827 N   0  0  0  0  0  0
    0.8009   32.6592    7.4119 N   0  0  0  0  0  0
   -3.1947   33.0816   12.1947 C   0  0  0  0  0  0
   -2.6875   32.7227   10.9804 C   0  0  0  0  0  0
   -3.3053   31.4896   10.6394 C   0  0  0  0  0  0
   -4.1903   31.1933   11.7216 C   0  0  0  0  0  0
   -5.1156   30.0922   12.0223 C   0  0  0  0  0  0
   -3.9472   28.4364   10.4400 C   0  0  0  0  0  0
   -3.8785   29.3313    9.2157 C   0  0  0  0  0  0
   -3.0135   30.5703    9.4294 C   0  0  0  0  0  0
   -1.9693   30.8466    8.5402 C   0  0  0  0  0  0
   -1.4920   30.1026    7.3054 C   0  0  0  0  0  0
   -0.1806   31.7937    7.5780 C   0  0  0  0  0  0
   -4.5778   32.2390   13.4804 H   0  0  0  0  0  0
   -5.6246   28.1724   11.6721 H   0  0  0  0  0  0
   -1.0803   32.6502    9.2429 H   0  0  0  0  0  0
    1.4371   32.5455    6.6692 H   0  0  0  0  0  0
    0.8972   33.4189    8.0306 H   0  0  0  0  0  0
  1  9  1  0  0  0
  2 13  2  0  0  0
  3 18  2  0  0  0
  4  9  1  0  0  0
  4 12  1  0  0  0
  4 20  1  0  0  0
  5 13  1  0  0  0
  5 14  1  0  0  0
  5 21  1  0  0  0
  6 18  1  0  0  0
  6 19  2  0  0  0
  7 17  1  0  0  0
  7 19  1  0  0  0
  7 22  1  0  0  0
  8 19  1  0  0  0
  8 23  1  0  0  0
  8 24  1  0  0  0
  9 10  2  0  0  0
 10 11  1  0  0  0
 11 12  2  0  0  0
 11 16  1  0  0  0
 12 13  1  0  0  0
 14 15  1  0  0  0
 15 16  1  0  0  0
 16 17  2  0  0  0
 17 18  1  0  0  0
M  END
>  <CHROM.0>
-147.30750363,58.79675923,153.72093203,63.99582656,-156.00320817,-61.11066012

>  <CHROM.1>
-2.81297632,31.75133646,10.64197980,-2.01112473,-0.74835791,-2.40989113

>  <FORMUL>
      HMD    C11 H10 Br1 N5 O2

>  <HET>
 HMD  A 400      19

>  <HETNAM>
     HMD 4-(5-AMINO-4-OXO-4H-PYRAZOL-3-YL)-2-BROMO-4,5,6,7-TETRA
   2 HMD HYDRO-3AH-PYRROLO[2,3-C]AZEPIN-8-ONE

>  <HETSYN>
     HMD HYMENIALDISINE

>  <Name>
HMD.pdb

>  <RI>
3.99621e+07

>  <Rbt.Current_Directory>
/home/malgorzata/Desktop/rDOCK_IFD/Wyniki/2_CDK2

>  <Rbt.Executable>
rbdock ($Id: //depot/dev/client3/rdock/2013.1/src/exe/rbdock.cxx#4 $)

>  <Rbt.Library>
libRbt.so (2013.1, Build901 2013/11/27)

>  <Rbt.Parameter_File>
/home/malgorzata/Desktop/rDock_2013.1_src/data/scripts/soft_docking.prm

>  <Rbt.Receptor>
cavity.prm

>  <SCORE>
-28.5731

>  <SCORE.INTER>
-30.8924

>  <SCORE.INTER.CONST>
1

>  <SCORE.INTER.POLAR>
-0.34521

>  <SCORE.INTER.REPUL>
0

>  <SCORE.INTER.ROT>
0

>  <SCORE.INTER.VDW>
-35.1187

>  <SCORE.INTER.norm>
-1.62592

>  <SCORE.INTRA>
0

>  <SCORE.INTRA.DIHEDRAL>
0

>  <SCORE.INTRA.DIHEDRAL.0>
0

>  <SCORE.INTRA.POLAR>
0

>  <SCORE.INTRA.POLAR.0>
0

>  <SCORE.INTRA.REPUL>
0

>  <SCORE.INTRA.REPUL.0>
0

>  <SCORE.INTRA.VDW>
0

>  <SCORE.INTRA.VDW.0>
0

>  <SCORE.INTRA.norm>
0

>  <SCORE.RESTR>
0.871923

>  <SCORE.RESTR.CAVITY>
0.174385

>  <SCORE.RESTR.norm>
0.0458907

>  <SCORE.SYSTEM>
1.44744

>  <SCORE.SYSTEM.CONST>
0

>  <SCORE.SYSTEM.DIHEDRAL>
2.02645

>  <SCORE.SYSTEM.POLAR>
-0.450786

>  <SCORE.SYSTEM.REPUL>
0.8

>  <SCORE.SYSTEM.VDW>
-2.03311

>  <SCORE.SYSTEM.norm>
0.0761811

>  <SCORE.heavy>
19

>  <SCORE.norm>
-1.50385

$$$$
HMD.pdb
  rDOCK(R)          3D
libRbt.so/2013.1/901 2013/11/27
 24 26  0  0  0  0  0  0  0  0999 V2000
   -3.6063   30.3459   10.8584 Br  0  0  0  0  0  0
   -0.1489   33.1231    7.8567 O   0  0  0  0  0  0
    2.1907   26.3977    6.1173 O   0  0  0  0  0  0
   -1.7133   31.2708    9.0585 N   0  0  0  0  0  0
    0.6634   31.6403    6.3120 N   0  0  0  0  0  0
    0.7806   24.9434    7.2068 N   0  0  0  0  0  0
   -0.4773   26.4229    8.3340 N   0  0  0  0  0  0
   -0.9572   24.1627    8.5933 N   0  0  0  0  0  0
   -2.1834   30.1896    9.6843 C   0  0  0  0  0  0
   -1.4919   29.0707    9.3236 C   0  0  0  0  0  0
   -0.5149   29.4924    8.3822 C   0  0  0  0  0  0
   -0.6935   30.9043    8.2525 C   0  0  0  0  0  0
   -0.0416   31.9554    7.4592 C   0  0  0  0  0  0
    0.8852   30.3142    5.7105 C   0  0  0  0  0  0
    1.4978   29.3107    6.6707 C   0  0  0  0  0  0
    0.4628   28.6228    7.5563 C   0  0  0  0  0  0
    0.4070   27.2254    7.5975 C   0  0  0  0  0  0
    1.2405   26.1757    6.8837 C   0  0  0  0  0  0
   -0.2378   25.1285    8.0548 C   0  0  0  0  0  0
   -2.0550   32.1876    9.1669 H   0  0  0  0  0  0
    1.0695   32.4003    5.8360 H   0  0  0  0  0  0
   -1.1642   26.7544    8.9565 H   0  0  0  0  0  0
   -0.7628   23.2229    8.3735 H   0  0  0  0  0  0
   -1.6885   24.3817    9.2150 H   0  0  0  0  0  0
  1  9  1  0  0  0
  2 13  2  0  0  0
  3 18  2  0  0  0
  4  9  1  0  0  0
  4 12  1  0  0  0
  4 20  1  0  0  0
  5 13  1  0  0  0
  5 14  1  0  0  0
  5 21  1  0  0  0
  6 18  1  0  0  0
  6 19  2  0  0  0
  7 17  1  0  0  0
  7 19  1  0  0  0
  7 22  1  0  0  0
  8 19  1  0  0  0
  8 23  1  0  0  0
  8 24  1  0  0  0
  9 10  2  0  0  0
 10 11  1  0  0  0
 11 12  2  0  0  0
 11 16  1  0  0  0
 12 13  1  0  0  0
 14 15  1  0  0  0
 15 16  1  0  0  0
 16 17  2  0  0  0
 17 18  1  0  0  0
M  END
>  <CHROM.0>
-38.23118288,6.45074588,3.72562894,56.48319972,136.64320507,-61.11066012

>  <CHROM.1>
-0.89077573,29.09226801,8.47978340,2.42485426,0.74870150,-0.08067092

>  <FORMUL>
      HMD    C11 H10 Br1 N5 O2

>  <HET>
 HMD  A 400      19

>  <HETNAM>
     HMD 4-(5-AMINO-4-OXO-4H-PYRAZOL-3-YL)-2-BROMO-4,5,6,7-TETRA
   2 HMD HYDRO-3AH-PYRROLO[2,3-C]AZEPIN-8-ONE

>  <HETSYN>
     HMD HYMENIALDISINE

>  <Name>
HMD.pdb

>  <RI>
3.99621e+07

>  <Rbt.Current_Directory>
/home/malgorzata/Desktop/rDOCK_IFD/Wyniki/2_CDK2

>  <Rbt.Executable>
rbdock ($Id: //depot/dev/client3/rdock/2013.1/src/exe/rbdock.cxx#4 $)

>  <Rbt.Library>
libRbt.so (2013.1, Build901 2013/11/27)

>  <Rbt.Parameter_File>
/home/malgorzata/Desktop/rDock_2013.1_src/data/scripts/soft_docking.prm

>  <Rbt.Receptor>
cavity.prm

>  <SCORE>
-23.1307

>  <SCORE.INTER>
-24.7334

>  <SCORE.INTER.CONST>
1

>  <SCORE.INTER.POLAR>
-0.723071

>  <SCORE.INTER.REPUL>
0

>  <SCORE.INTER.ROT>
0

>  <SCORE.INTER.VDW>
-27.675

>  <SCORE.INTER.norm>
-1.30176

>  <SCORE.INTRA>
0

>  <SCORE.INTRA.DIHEDRAL>
0

>  <SCORE.INTRA.DIHEDRAL.0>
0

>  <SCORE.INTRA.POLAR>
0

>  <SCORE.INTRA.POLAR.0>
0

>  <SCORE.INTRA.REPUL>
0

>  <SCORE.INTRA.REPUL.0>
0

>  <SCORE.INTRA.VDW>
0

>  <SCORE.INTRA.VDW.0>
0

>  <SCORE.INTRA.norm>
0

>  <SCORE.RESTR>
0

>  <SCORE.RESTR.CAVITY>
0

>  <SCORE.RESTR.norm>
0

>  <SCORE.SYSTEM>
1.6027

>  <SCORE.SYSTEM.CONST>
0

>  <SCORE.SYSTEM.DIHEDRAL>
2.02281

>  <SCORE.SYSTEM.POLAR>
-0.619677

>  <SCORE.SYSTEM.REPUL>
0.8

>  <SCORE.SYSTEM.VDW>
-1.3018

>  <SCORE.SYSTEM.norm>
0.0843526

>  <SCORE.heavy>
19

>  <SCORE.norm>
-1.21741

$$$$
HMD.pdb
  rDOCK(R)          3D
libRbt.so/2013.1/901 2013/11/27
 24 26  0  0  0  0  0  0  0  0999 V2000
   -5.8481   33.0510   13.7041 Br  0  0  0  0  0  0
   -1.9145   33.0811   10.0706 O   0  0  0  0  0  0
   -2.9300   25.8287   10.3883 O   0  0  0  0  0  0
   -3.9700   32.5172   11.7379 N   0  0  0  0  0  0
   -2.0111   31.0416    9.0334 N   0  0  0  0  0  0
   -4.6891   25.5059   11.8346 N   0  0  0  0  0  0
   -5.0419   27.6312   12.4675 N   0  0  0  0  0  0
   -6.4155   25.9839   13.3654 N   0  0  0  0  0  0
   -4.7825   31.9699   12.6444 C   0  0  0  0  0  0
   -4.6896   30.6091   12.6329 C   0  0  0  0  0  0
   -3.7457   30.2827   11.6224 C   0  0  0  0  0  0
   -3.3117   31.5343   11.0863 C   0  0  0  0  0  0
   -2.3695   31.9303   10.0305 C   0  0  0  0  0  0
   -2.4563   29.6502    8.8455 C   0  0  0  0  0  0
   -2.2273   28.7736   10.0634 C   0  0  0  0  0  0
   -3.3445   28.8837   11.0972 C   0  0  0  0  0  0
   -3.9924   27.7259   11.5414 C   0  0  0  0  0  0
   -3.7845   26.2672   11.1738 C   0  0  0  0  0  0
   -5.4194   26.3443   12.5792 C   0  0  0  0  0  0
   -3.8671   33.4819   11.5711 H   0  0  0  0  0  0
   -1.3766   31.3830    8.3626 H   0  0  0  0  0  0
   -5.4393   28.3866   12.9581 H   0  0  0  0  0  0
   -6.6731   25.0359   13.4304 H   0  0  0  0  0  0
   -6.9011   26.6629   13.8872 H   0  0  0  0  0  0
  1  9  1  0  0  0
  2 13  2  0  0  0
  3 18  2  0  0  0
  4  9  1  0  0  0
  4 12  1  0  0  0
  4 20  1  0  0  0
  5 13  1  0  0  0
  5 14  1  0  0  0
  5 21  1  0  0  0
  6 18  1  0  0  0
  6 19  2  0  0  0
  7 17  1  0  0  0
  7 19  1  0  0  0
  7 22  1  0  0  0
  8 19  1  0  0  0
  8 23  1  0  0  0
  8 24  1  0  0  0
  9 10  2  0  0  0
 10 11  1  0  0  0
 11 12  2  0  0  0
 11 16  1  0  0  0
 12 13  1  0  0  0
 14 15  1  0  0  0
 15 16  1  0  0  0
 16 17  2  0  0  0
 17 18  1  0  0  0
M  END
>  <CHROM.0>
-147.46725637,-85.78213547,-109.41557419,-147.55292665,132.44143746,-61.11066012

>  <CHROM.1>
-4.24286861,30.13495002,11.82701699,1.77300039,0.80512377,0.08729710

>  <FORMUL>
      HMD    C11 H10 Br1 N5 O2

>  <HET>
 HMD  A 400      19

>  <HETNAM>
     HMD 4-(5-AMINO-4-OXO-4H-PYRAZOL-3-YL)-2-BROMO-4,5,6,7-TETRA
   2 HMD HYDRO-3AH-PYRROLO[2,3-C]AZEPIN-8-ONE

>  <HETSYN>
     HMD HYMENIALDISINE

>  <Name>
HMD.pdb

>  <RI>
3.99621e+07

>  <Rbt.Current_Directory>
/home/malgorzata/Desktop/rDOCK_IFD/Wyniki/2_CDK2

>  <Rbt.Executable>
rbdock ($Id: //depot/dev/client3/rdock/2013.1/src/exe/rbdock.cxx#4 $)

>  <Rbt.Library>
libRbt.so (2013.1, Build901 2013/11/27)

>  <Rbt.Parameter_File>
/home/malgorzata/Desktop/rDock_2013.1_src/data/scripts/soft_docking.prm

>  <Rbt.Receptor>
cavity.prm

>  <SCORE>
-27.2625

>  <SCORE.INTER>
-28.1587

>  <SCORE.INTER.CONST>
1

>  <SCORE.INTER.POLAR>
-0.538801

>  <SCORE.INTER.REPUL>
0

>  <SCORE.INTER.ROT>
0

>  <SCORE.INTER.VDW>
-31.7268

>  <SCORE.INTER.norm>
-1.48204

>  <SCORE.INTRA>
0

>  <SCORE.INTRA.DIHEDRAL>
0

>  <SCORE.INTRA.DIHEDRAL.0>
0

>  <SCORE.INTRA.POLAR>
0

>  <SCORE.INTRA.POLAR.0>
0

>  <SCORE.INTRA.REPUL>
0

>  <SCORE.INTRA.REPUL.0>
0

>  <SCORE.INTRA.VDW>
0

>  <SCORE.INTRA.VDW.0>
0

>  <SCORE.INTRA.norm>
0

>  <SCORE.RESTR>
0

>  <SCORE.RESTR.CAVITY>
0

>  <SCORE.RESTR.norm>
0

>  <SCORE.SYSTEM>
0.89623

>  <SCORE.SYSTEM.CONST>
0

>  <SCORE.SYSTEM.DIHEDRAL>
2.01836

>  <SCORE.SYSTEM.POLAR>
-0.599474

>  <SCORE.SYSTEM.REPUL>
0.8

>  <SCORE.SYSTEM.VDW>
-2.07474

>  <SCORE.SYSTEM.norm>
0.04717

>  <SCORE.heavy>
19

>  <SCORE.norm>
-1.43487

$$$$
HMD.pdb
  rDOCK(R)          3D
libRbt.so/2013.1/901 2013/11/27
 24 26  0  0  0  0  0  0  0  0999 V2000
    1.5562   25.4180    6.7926 Br  0  0  0  0  0  0
    2.1306   30.4323    5.0029 O   0  0  0  0  0  0
   -3.0755   31.7399    9.9945 O   0  0  0  0  0  0
    1.5498   28.1514    6.3383 N   0  0  0  0  0  0
    1.2201   31.7766    6.6179 N   0  0  0  0  0  0
   -3.4641   29.7261   11.0356 N   0  0  0  0  0  0
   -2.0991   28.4156    9.8268 N   0  0  0  0  0  0
   -3.3146   27.4308   11.5470 N   0  0  0  0  0  0
    0.9414   27.1538    6.9832 C   0  0  0  0  0  0
   -0.1012   27.6137    7.7328 C   0  0  0  0  0  0
   -0.1353   29.0218    7.5462 C   0  0  0  0  0  0
    0.9335   29.3137    6.6436 C   0  0  0  0  0  0
    1.4636   30.5441    6.0400 C   0  0  0  0  0  0
    0.4520   32.0786    7.8379 C   0  0  0  0  0  0
   -0.9609   31.5238    7.8143 C   0  0  0  0  0  0
   -1.0365   30.0636    8.2511 C   0  0  0  0  0  0
   -1.9052   29.6947    9.2839 C   0  0  0  0  0  0
   -2.8663   30.5231   10.1181 C   0  0  0  0  0  0
   -2.9803   28.4938   10.8409 C   0  0  0  0  0  0
    2.3232   28.0555    5.7368 H   0  0  0  0  0  0
    1.6105   32.5522    6.1542 H   0  0  0  0  0  0
   -1.6600   27.5914    9.5152 H   0  0  0  0  0  0
   -3.9618   27.5133   12.2843 H   0  0  0  0  0  0
   -2.9171   26.5551   11.3365 H   0  0  0  0  0  0
  1  9  1  0  0  0
  2 13  2  0  0  0
  3 18  2  0  0  0
  4  9  1  0  0  0
  4 12  1  0  0  0
  4 20  1  0  0  0
  5 13  1  0  0  0
  5 14  1  0  0  0
  5 21  1  0  0  0
  6 18  1  0  0  0
  6 19  2  0  0  0
  7 17  1  0  0  0
  7 19  1  0  0  0
  7 22  1  0  0  0
  8 19  1  0  0  0
  8 23  1  0  0  0
  8 24  1  0  0  0
  9 10  2  0  0  0
 10 11  1  0  0  0
 11 12  2  0  0  0
 11 16  1  0  0  0
 12 13  1  0  0  0
 14 15  1  0  0  0
 15 16  1  0  0  0
 16 17  2  0  0  0
 17 18  1  0  0  0
M  END
>  <CHROM.0>
36.77765160,-148.26606267,-101.11630798,68.57811128,152.68258267,-61.11066012

>  <CHROM.1>
-0.17433042,28.62691401,7.93785548,0.46563942,-0.76807091,2.98910539

>  <FORMUL>
      HMD    C11 H10 Br1 N5 O2

>  <HET>
 HMD  A 400      19

>  <HETNAM>
     HMD 4-(5-AMINO-4-OXO-4H-PYRAZOL-3-YL)-2-BROMO-4,5,6,7-TETRA
   2 HMD HYDRO-3AH-PYRROLO[2,3-C]AZEPIN-8-ONE

>  <HETSYN>
     HMD HYMENIALDISINE

>  <Name>
HMD.pdb

>  <RI>
3.99621e+07

>  <Rbt.Current_Directory>
/home/malgorzata/Desktop/rDOCK_IFD/Wyniki/2_CDK2

>  <Rbt.Executable>
rbdock ($Id: //depot/dev/client3/rdock/2013.1/src/exe/rbdock.cxx#4 $)

>  <Rbt.Library>
libRbt.so (2013.1, Build901 2013/11/27)

>  <Rbt.Parameter_File>
/home/malgorzata/Desktop/rDock_2013.1_src/data/scripts/soft_docking.prm

>  <Rbt.Receptor>
cavity.prm

>  <SCORE>
-22.0233

>  <SCORE.INTER>
-23.0912

>  <SCORE.INTER.CONST>
1

>  <SCORE.INTER.POLAR>
-0.540788

>  <SCORE.INTER.REPUL>
0

>  <SCORE.INTER.ROT>
0

>  <SCORE.INTER.VDW>
-26.6525

>  <SCORE.INTER.norm>
-1.21532

>  <SCORE.INTRA>
0

>  <SCORE.INTRA.DIHEDRAL>
0

>  <SCORE.INTRA.DIHEDRAL.0>
0

>  <SCORE.INTRA.POLAR>
0

>  <SCORE.INTRA.POLAR.0>
0

>  <SCORE.INTRA.REPUL>
0

>  <SCORE.INTRA.REPUL.0>
0

>  <SCORE.INTRA.VDW>
0

>  <SCORE.INTRA.VDW.0>
0

>  <SCORE.INTRA.norm>
0

>  <SCORE.RESTR>
0

>  <SCORE.RESTR.CAVITY>
0

>  <SCORE.RESTR.norm>
0

>  <SCORE.SYSTEM>
1.06782

>  <SCORE.SYSTEM.CONST>
0

>  <SCORE.SYSTEM.DIHEDRAL>
2.03361

>  <SCORE.SYSTEM.POLAR>
-0.619677

>  <SCORE.SYSTEM.REPUL>
0.8

>  <SCORE.SYSTEM.VDW>
-1.84209

>  <SCORE.SYSTEM.norm>
0.0562009

>  <SCORE.heavy>
19

>  <SCORE.norm>
-1.15912

$$$$
HMD.pdb
  rDOCK(R)          3D
libRbt.so/2013.1/901 2013/11/27
 24 26  0  0  0  0  0  0  0  0999 V2000
   -0.6839   24.5344    8.6667 Br  0  0  0  0  0  0
   -4.2101   26.2419   12.3173 O   0  0  0  0  0  0
   -2.3412   32.7848    9.5919 O   0  0  0  0  0  0
   -2.4750   25.9170   10.2662 N   0  0  0  0  0  0
   -4.7831   28.3661   11.6816 N   0  0  0  0  0  0
   -0.8718   32.3515    7.8762 N   0  0  0  0  0  0
   -0.7153   30.1207    8.0783 N   0  0  0  0  0  0
    0.5073   31.1509    6.3900 N   0  0  0  0  0  0
   -1.4775   26.0433    9.3884 C   0  0  0  0  0  0
   -1.1942   27.3557    9.1484 C   0  0  0  0  0  0
   -2.1037   28.1102    9.9372 C   0  0  0  0  0  0
   -2.8943   27.1464   10.6359 C   0  0  0  0  0  0
   -4.0039   27.2268   11.5958 C   0  0  0  0  0  0
   -4.6693   29.6121   10.9046 C   0  0  0  0  0  0
   -3.2892   30.2409   10.9708 C   0  0  0  0  0  0
   -2.3116   29.6433    9.9628 C   0  0  0  0  0  0
   -1.6325   30.4851    9.0753 C   0  0  0  0  0  0
   -1.6750   31.9937    8.9065 C   0  0  0  0  0  0
   -0.3311   31.2214    7.4061 C   0  0  0  0  0  0
   -2.8454   25.0650   10.5917 H   0  0  0  0  0  0
   -5.5072   28.3411   12.3481 H   0  0  0  0  0  0
   -0.4022   29.2047    7.8988 H   0  0  0  0  0  0
    0.7736   31.9705    5.9138 H   0  0  0  0  0  0
    0.8668   30.2789    6.1080 H   0  0  0  0  0  0
  1  9  1  0  0  0
  2 13  2  0  0  0
  3 18  2  0  0  0
  4  9  1  0  0  0
  4 12  1  0  0  0
  4 20  1  0  0  0
  5 13  1  0  0  0
  5 14  1  0  0  0
  5 21  1  0  0  0
  6 18  1  0  0  0
  6 19  2  0  0  0
  7 17  1  0  0  0
  7 19  1  0  0  0
  7 22  1  0  0  0
  8 19  1  0  0  0
  8 23  1  0  0  0
  8 24  1  0  0  0
  9 10  2  0  0  0
 10 11  1  0  0  0
 11 12  2  0  0  0
 11 16  1  0  0  0
 12 13  1  0  0  0
 14 15  1  0  0  0
 15 16  1  0  0  0
 16 17  2  0  0  0
 17 18  1  0  0  0
M  END
>  <CHROM.0>
119.48327018,-83.61248205,-136.29660604,156.72209082,-161.44338126,-61.11066012

>  <CHROM.1>
-1.87555269,28.08435165,9.42908571,-1.54968017,0.76461105,-0.12386614

>  <FORMUL>
      HMD    C11 H10 Br1 N5 O2

>  <HET>
 HMD  A 400      19

>  <HETNAM>
     HMD 4-(5-AMINO-4-OXO-4H-PYRAZOL-3-YL)-2-BROMO-4,5,6,7-TETRA
   2 HMD HYDRO-3AH-PYRROLO[2,3-C]AZEPIN-8-ONE

>  <HETSYN>
     HMD HYMENIALDISINE

>  <Name>
HMD.pdb

>  <RI>
3.99621e+07

>  <Rbt.Current_Directory>
/home/malgorzata/Desktop/rDOCK_IFD/Wyniki/2_CDK2

>  <Rbt.Executable>
rbdock ($Id: //depot/dev/client3/rdock/2013.1/src/exe/rbdock.cxx#4 $)

>  <Rbt.Library>
libRbt.so (2013.1, Build901 2013/11/27)

>  <Rbt.Parameter_File>
/home/malgorzata/Desktop/rDock_2013.1_src/data/scripts/soft_docking.prm

>  <Rbt.Receptor>
cavity.prm

>  <SCORE>
-23.4348

>  <SCORE.INTER>
-25.056

>  <SCORE.INTER.CONST>
1

>  <SCORE.INTER.POLAR>
-1.03128

>  <SCORE.INTER.REPUL>
0

>  <SCORE.INTER.ROT>
0

>  <SCORE.INTER.VDW>
-26.9496

>  <SCORE.INTER.norm>
-1.31873

>  <SCORE.INTRA>
0

>  <SCORE.INTRA.DIHEDRAL>
0

>  <SCORE.INTRA.DIHEDRAL.0>
0

>  <SCORE.INTRA.POLAR>
0

>  <SCORE.INTRA.POLAR.0>
0

>  <SCORE.INTRA.REPUL>
0

>  <SCORE.INTRA.REPUL.0>
0

>  <SCORE.INTRA.VDW>
0

>  <SCORE.INTRA.VDW.0>
0

>  <SCORE.INTRA.norm>
0

>  <SCORE.RESTR>
0.483283

>  <SCORE.RESTR.CAVITY>
0.0966567

>  <SCORE.RESTR.norm>
0.025436

>  <SCORE.SYSTEM>
1.13789

>  <SCORE.SYSTEM.CONST>
0

>  <SCORE.SYSTEM.DIHEDRAL>
2.02507

>  <SCORE.SYSTEM.POLAR>
-0.500642

>  <SCORE.SYSTEM.REPUL>
0.8

>  <SCORE.SYSTEM.VDW>
-2.17247

>  <SCORE.SYSTEM.norm>
0.0598889

>  <SCORE.heavy>
19

>  <SCORE.norm>
-1.23341

$$$$
HMD.pdb
  rDOCK(R)          3D
libRbt.so/2013.1/901 2013/11/27
 24 26  0  0  0  0  0  0  0  0999 V2000
    0.8086   32.1169    7.4810 Br  0  0  0  0  0  0
   -2.8174   28.3090    6.4669 O   0  0  0  0  0  0
   -5.7119   30.8096   12.7198 O   0  0  0  0  0  0
   -1.3757   30.4159    7.3643 N   0  0  0  0  0  0
   -4.6487   28.8415    7.7347 N   0  0  0  0  0  0
   -4.3885   32.5791   13.3583 N   0  0  0  0  0  0
   -2.8276   32.4734   11.7476 N   0  0  0  0  0  0
   -2.6311   34.1487   13.3478 N   0  0  0  0  0  0
   -0.7338   31.3133    8.1154 C   0  0  0  0  0  0
   -1.3703   31.5062    9.3062 C   0  0  0  0  0  0
   -2.5142   30.6637    9.2875 C   0  0  0  0  0  0
   -2.4686   29.9851    8.0306 C   0  0  0  0  0  0
   -3.3251   28.9943    7.3644 C   0  0  0  0  0  0
   -5.3973   29.5692    8.7737 C   0  0  0  0  0  0
   -4.7412   29.5128   10.1415 C   0  0  0  0  0  0
   -3.6561   30.5695   10.3275 C   0  0  0  0  0  0
   -3.7175   31.4388   11.4220 C   0  0  0  0  0  0
   -4.7260   31.5441   12.5525 C   0  0  0  0  0  0
   -3.2710   33.1093   12.8475 C   0  0  0  0  0  0
   -1.0974   30.1164    6.4688 H   0  0  0  0  0  0
   -5.1561   28.1582    7.2400 H   0  0  0  0  0  0
   -2.0085   32.6985   11.2501 H   0  0  0  0  0  0
   -2.9752   34.5974   14.1538 H   0  0  0  0  0  0
   -1.8094   34.4757   12.9153 H   0  0  0  0  0  0
  1  9  1  0  0  0
  2 13  2  0  0  0
  3 18  2  0  0  0
  4  9  1  0  0  0
  4 12  1  0  0  0
  4 20  1  0  0  0
  5 13  1  0  0  0
  5 14  1  0  0  0
  5 21  1  0  0  0
  6 18  1  0  0  0
  6 19  2  0  0  0
  7 17  1  0  0  0
  7 19  1  0  0  0
  7 22  1  0  0  0
  8 19  1  0  0  0
  8 23  1  0  0  0
  8 24  1  0  0  0
  9 10  2  0  0  0
 10 11  1  0  0  0
 11 12  2  0  0  0
 11 16  1  0  0  0
 12 13  1  0  0  0
 14 15  1  0  0  0
 15 16  1  0  0  0
 16 17  2  0  0  0
 17 18  1  0  0  0
M  END
>  <CHROM.0>
-55.26579863,87.29557742,-139.95978600,100.95854471,-179.76131202,-61.11066012

>  <CHROM.1>
-2.34647888,31.17814907,9.42194718,-0.70929039,0.53039020,0.94880413

>  <FORMUL>
      HMD    C11 H10 Br1 N5 O2

>  <HET>
 HMD  A 400      19

>  <HETNAM>
     HMD 4-(5-AMINO-4-OXO-4H-PYRAZOL-3-YL)-2-BROMO-4,5,6,7-TETRA
   2 HMD HYDRO-3AH-PYRROLO[2,3-C]AZEPIN-8-ONE

>  <HETSYN>
     HMD HYMENIALDISINE

>  <Name>
HMD.pdb

>  <RI>
3.99621e+07

>  <Rbt.Current_Directory>
/home/malgorzata/Desktop/rDOCK_IFD/Wyniki/2_CDK2

>  <Rbt.Executable>
rbdock ($Id: //depot/dev/client3/rdock/2013.1/src/exe/rbdock.cxx#4 $)

>  <Rbt.Library>
libRbt.so (2013.1, Build901 2013/11/27)

>  <Rbt.Parameter_File>
/home/malgorzata/Desktop/rDock_2013.1_src/data/scripts/soft_docking.prm

>  <Rbt.Receptor>
cavity.prm

>  <SCORE>
-26.415

>  <SCORE.INTER>
-28.6035

>  <SCORE.INTER.CONST>
1

>  <SCORE.INTER.POLAR>
-0.387824

>  <SCORE.INTER.REPUL>
0

>  <SCORE.INTER.ROT>
0

>  <SCORE.INTER.VDW>
-32.6849

>  <SCORE.INTER.norm>
-1.50545

>  <SCORE.INTRA>
0

>  <SCORE.INTRA.DIHEDRAL>
0

>  <SCORE.INTRA.DIHEDRAL.0>
0

>  <SCORE.INTRA.POLAR>
0

>  <SCORE.INTRA.POLAR.0>
0

>  <SCORE.INTRA.REPUL>
0

>  <SCORE.INTRA.REPUL.0>
0

>  <SCORE.INTRA.VDW>
0

>  <SCORE.INTRA.VDW.0>
0

>  <SCORE.INTRA.norm>
0

>  <SCORE.RESTR>
1.50232

>  <SCORE.RESTR.CAVITY>
0.300464

>  <SCORE.RESTR.norm>
0.0790695

>  <SCORE.SYSTEM>
0.686175

>  <SCORE.SYSTEM.CONST>
0

>  <SCORE.SYSTEM.DIHEDRAL>
2.03205

>  <SCORE.SYSTEM.POLAR>
-0.596248

>  <SCORE.SYSTEM.REPUL>
0.8

>  <SCORE.SYSTEM.VDW>
-2.30261

>  <SCORE.SYSTEM.norm>
0.0361145

>  <SCORE.heavy>
19

>  <SCORE.norm>
-1.39026

$$$$
