TOL.pdb
  rDOCK(R)          3D
libRbt.so/2013.1/901 2013/11/27
 25 26  0  0  0  0  0  0  0  0999 V2000
   24.3787   25.1433   74.9128 C   0  0  0  0  0  0
   24.8124   23.8700   75.0904 F   0  0  0  0  0  0
   24.3721   25.3751   73.5733 F   0  0  0  0  0  0
   23.0900   25.2130   75.3407 F   0  0  0  0  0  0
   25.2629   26.1559   75.6725 C   0  0  0  0  0  0
   25.8672   27.2879   75.0664 C   0  0  0  0  0  0
   25.6820   27.5172   73.7790 O   0  0  0  0  0  0
   26.7876   27.1242   72.9827 C   0  0  0  0  0  0
   26.6621   28.1515   75.8516 C   0  0  0  0  0  0
   26.8581   27.9035   77.2149 C   0  0  0  0  0  0
   26.2618   26.7793   77.8196 C   0  0  0  0  0  0
   26.4688   26.5390   79.1981 C   0  0  0  0  0  0
   25.8731   25.4188   79.8006 C   0  0  0  0  0  0
   25.0838   24.5468   79.0473 C   0  0  0  0  0  0
   24.8811   24.7894   77.6830 C   0  0  0  0  0  0
   25.4661   25.9049   77.0554 C   0  0  0  0  0  0
   27.3057   27.4283   80.0872 C   0  0  0  0  0  0
   28.8302   27.9802   79.5326 S   0  0  0  0  0  0
   26.8418   27.7848   81.2860 N   0  0  0  0  0  0
   25.4969   27.3897   81.6899 C   0  0  0  0  0  0
   27.6411   28.5835   82.2097 C   0  0  0  0  0  0
   29.0130   27.9399   82.4741 C   0  0  0  0  0  0
   30.0453   28.4936   82.2011 O   0  0  0  0  0  0
   28.9784   26.7259   83.0350 O   0  0  0  0  0  0
   29.7757   26.3049   83.2902 H   0  0  0  0  0  0
  1  2  1  0  0  0
  1  3  1  0  0  0
  1  4  1  0  0  0
  1  5  1  0  0  0
  5  6  2  0  0  0
  5 16  1  0  0  0
  6  7  1  0  0  0
  6  9  1  0  0  0
  7  8  1  0  0  0
  9 10  2  0  0  0
 10 11  1  0  0  0
 11 12  2  0  0  0
 11 16  1  0  0  0
 12 13  1  0  0  0
 12 17  1  0  0  0
 13 14  2  0  0  0
 14 15  1  0  0  0
 15 16  2  0  0  0
 17 18  2  0  0  0
 17 19  1  0  0  0
 19 20  1  0  0  0
 19 21  1  0  0  0
 21 22  1  0  0  0
 22 23  2  0  0  0
 22 24  1  0  0  0
 24 25  1  0  0  0
M  END
>  <CHROM.0>
-6.10316549,-57.92878313,-172.89226233,-108.29553869,174.77535126,61.53706409

>  <CHROM.1>
126.87476887,-101.36869738,-44.93564333,-54.41518954,119.05079415,-174.87760719
26.41445667,26.68300609,78.01149036,2.17741259,-0.73924601,-1.40028875

>  <FORMUL>
      TOL    C16 H14 F3 N1 O3 S1

>  <HET>
 TOL  A 320      24

>  <HETNAM>
     TOL TOLRESTAT

>  <Name>
TOL.pdb

>  <RI>
1.7946e+07

>  <Rbt.Current_Directory>
/home/malgorzata/Desktop/rDOCK_IFD/Wyniki/1_aldose_reductase/IFD

>  <Rbt.Executable>
rbdock ($Id: //depot/dev/client3/rdock/2013.1/src/exe/rbdock.cxx#4 $)

>  <Rbt.Library>
libRbt.so (2013.1, Build901 2013/11/27)

>  <Rbt.Parameter_File>
/home/malgorzata/Desktop/rDock_2013.1_src/data/scripts/dock.prm

>  <Rbt.Receptor>
cavity.prm

>  <SCORE>
-14.1853

>  <SCORE.INTER>
-11.9899

>  <SCORE.INTER.CONST>
1

>  <SCORE.INTER.POLAR>
-1.94865

>  <SCORE.INTER.REPUL>
0

>  <SCORE.INTER.ROT>
5

>  <SCORE.INTER.VDW>
-15.7645

>  <SCORE.INTER.norm>
-0.499578

>  <SCORE.INTRA>
-3.16511

>  <SCORE.INTRA.DIHEDRAL>
-1.26695

>  <SCORE.INTRA.DIHEDRAL.0>
16.9783

>  <SCORE.INTRA.POLAR>
0

>  <SCORE.INTRA.POLAR.0>
0

>  <SCORE.INTRA.REPUL>
0

>  <SCORE.INTRA.REPUL.0>
0

>  <SCORE.INTRA.VDW>
-2.53163

>  <SCORE.INTRA.VDW.0>
4.87734

>  <SCORE.INTRA.norm>
-0.131879

>  <SCORE.RESTR>
0

>  <SCORE.RESTR.CAVITY>
0

>  <SCORE.RESTR.norm>
0

>  <SCORE.SYSTEM>
0.969636

>  <SCORE.SYSTEM.CONST>
0

>  <SCORE.SYSTEM.DIHEDRAL>
0.699592

>  <SCORE.SYSTEM.VDW>
0.61984

>  <SCORE.SYSTEM.norm>
0.0404015

>  <SCORE.heavy>
24

>  <SCORE.norm>
-0.591056

$$$$
TOL.pdb
  rDOCK(R)          3D
libRbt.so/2013.1/901 2013/11/27
 25 26  0  0  0  0  0  0  0  0999 V2000
   20.6799   20.2286   77.0642 C   0  0  0  0  0  0
   20.7361   20.8217   75.8452 F   0  0  0  0  0  0
   19.6262   19.3700   77.0377 F   0  0  0  0  0  0
   21.8051   19.4817   77.2216 F   0  0  0  0  0  0
   20.5516   21.2697   78.1973 C   0  0  0  0  0  0
   19.4205   21.3768   79.0477 C   0  0  0  0  0  0
   18.4012   20.5526   78.8869 O   0  0  0  0  0  0
   17.3919   21.0797   78.0416 C   0  0  0  0  0  0
   19.4019   22.3684   80.0530 C   0  0  0  0  0  0
   20.4829   23.2416   80.2183 C   0  0  0  0  0  0
   21.6065   23.1400   79.3745 C   0  0  0  0  0  0
   22.6921   24.0296   79.5510 C   0  0  0  0  0  0
   23.8124   23.9270   78.7102 C   0  0  0  0  0  0
   23.8567   22.9569   77.7063 C   0  0  0  0  0  0
   22.7797   22.0779   77.5359 C   0  0  0  0  0  0
   21.6458   22.1593   78.3653 C   0  0  0  0  0  0
   22.7291   25.1066   80.6096 C   0  0  0  0  0  0
   23.8977   25.0202   81.8597 S   0  0  0  0  0  0
   21.8619   26.1184   80.5499 N   0  0  0  0  0  0
   20.9488   26.2252   79.4173 C   0  0  0  0  0  0
   21.8107   27.1449   81.5861 C   0  0  0  0  0  0
   22.8227   28.2719   81.3175 C   0  0  0  0  0  0
   22.6111   29.1486   80.5215 O   0  0  0  0  0  0
   23.9500   28.2135   82.0353 O   0  0  0  0  0  0
   24.0952   27.4976   82.6221 H   0  0  0  0  0  0
  1  2  1  0  0  0
  1  3  1  0  0  0
  1  4  1  0  0  0
  1  5  1  0  0  0
  5  6  2  0  0  0
  5 16  1  0  0  0
  6  7  1  0  0  0
  6  9  1  0  0  0
  7  8  1  0  0  0
  9 10  2  0  0  0
 10 11  1  0  0  0
 11 12  2  0  0  0
 11 16  1  0  0  0
 12 13  1  0  0  0
 12 17  1  0  0  0
 13 14  2  0  0  0
 14 15  1  0  0  0
 15 16  2  0  0  0
 17 18  2  0  0  0
 17 19  1  0  0  0
 19 20  1  0  0  0
 19 21  1  0  0  0
 21 22  1  0  0  0
 22 23  2  0  0  0
 22 24  1  0  0  0
 24 25  1  0  0  0
M  END
>  <CHROM.0>
173.86521737,174.37777119,175.50844906,121.77055128,69.99765582,178.79318464

>  <CHROM.1>
115.57789593,-93.23190884,115.32550948,85.84968281,79.17683968,2.72150485
21.55769625,23.47466406,79.26169866,-1.94770947,0.16382727,0.57047820

>  <FORMUL>
      TOL    C16 H14 F3 N1 O3 S1

>  <HET>
 TOL  A 320      24

>  <HETNAM>
     TOL TOLRESTAT

>  <Name>
TOL.pdb

>  <RI>
1.7946e+07

>  <Rbt.Current_Directory>
/home/malgorzata/Desktop/rDOCK_IFD/Wyniki/1_aldose_reductase/IFD

>  <Rbt.Executable>
rbdock ($Id: //depot/dev/client3/rdock/2013.1/src/exe/rbdock.cxx#4 $)

>  <Rbt.Library>
libRbt.so (2013.1, Build901 2013/11/27)

>  <Rbt.Parameter_File>
/home/malgorzata/Desktop/rDock_2013.1_src/data/scripts/dock.prm

>  <Rbt.Receptor>
cavity.prm

>  <SCORE>
-11.7911

>  <SCORE.INTER>
-6.72256

>  <SCORE.INTER.CONST>
1

>  <SCORE.INTER.POLAR>
0

>  <SCORE.INTER.REPUL>
0

>  <SCORE.INTER.ROT>
5

>  <SCORE.INTER.VDW>
-17.1226

>  <SCORE.INTER.norm>
-0.280106

>  <SCORE.INTRA>
-5.99302

>  <SCORE.INTRA.DIHEDRAL>
2.88143

>  <SCORE.INTRA.DIHEDRAL.0>
16.9783

>  <SCORE.INTRA.POLAR>
-0.250431

>  <SCORE.INTRA.POLAR.0>
0

>  <SCORE.INTRA.REPUL>
0

>  <SCORE.INTRA.REPUL.0>
0

>  <SCORE.INTRA.VDW>
-6.58228

>  <SCORE.INTRA.VDW.0>
4.87734

>  <SCORE.INTRA.norm>
-0.249709

>  <SCORE.RESTR>
0.000545545

>  <SCORE.RESTR.CAVITY>
0.000545545

>  <SCORE.RESTR.norm>
2.27311e-05

>  <SCORE.SYSTEM>
0.923905

>  <SCORE.SYSTEM.CONST>
0

>  <SCORE.SYSTEM.DIHEDRAL>
1.13612

>  <SCORE.SYSTEM.VDW>
0.355845

>  <SCORE.SYSTEM.norm>
0.038496

>  <SCORE.heavy>
24

>  <SCORE.norm>
-0.491297

$$$$
TOL.pdb
  rDOCK(R)          3D
libRbt.so/2013.1/901 2013/11/27
 25 26  0  0  0  0  0  0  0  0999 V2000
   27.9182   28.2042   78.2051 C   0  0  0  0  0  0
   27.5450   29.4471   77.8091 F   0  0  0  0  0  0
   27.9654   27.4312   77.0878 F   0  0  0  0  0  0
   29.1836   28.2808   78.6965 F   0  0  0  0  0  0
   26.9531   27.6322   79.2661 C   0  0  0  0  0  0
   27.3198   27.3799   80.6136 C   0  0  0  0  0  0
   28.5508   27.6390   81.0158 O   0  0  0  0  0  0
   28.6440   28.8306   81.7788 C   0  0  0  0  0  0
   26.3602   26.8511   81.5046 C   0  0  0  0  0  0
   25.0576   26.5754   81.0737 C   0  0  0  0  0  0
   24.6905   26.8222   79.7361 C   0  0  0  0  0  0
   23.3710   26.5379   79.3128 C   0  0  0  0  0  0
   23.0054   26.7853   77.9794 C   0  0  0  0  0  0
   23.9350   27.3060   77.0763 C   0  0  0  0  0  0
   25.2399   27.5866   77.5003 C   0  0  0  0  0  0
   25.6314   27.3484   78.8309 C   0  0  0  0  0  0
   22.3030   25.9747   80.2205 C   0  0  0  0  0  0
   21.2086   27.0404   80.9969 S   0  0  0  0  0  0
   22.2157   24.6551   80.3948 N   0  0  0  0  0  0
   23.0899   23.7645   79.6395 C   0  0  0  0  0  0
   21.2478   24.0668   81.3152 C   0  0  0  0  0  0
   20.1136   23.3502   80.5626 C   0  0  0  0  0  0
   19.7601   22.2355   80.8444 O   0  0  0  0  0  0
   19.5433   24.0548   79.5789 O   0  0  0  0  0  0
   19.8490   24.9186   79.3833 H   0  0  0  0  0  0
  1  2  1  0  0  0
  1  3  1  0  0  0
  1  4  1  0  0  0
  1  5  1  0  0  0
  5  6  2  0  0  0
  5 16  1  0  0  0
  6  7  1  0  0  0
  6  9  1  0  0  0
  7  8  1  0  0  0
  9 10  2  0  0  0
 10 11  1  0  0  0
 11 12  2  0  0  0
 11 16  1  0  0  0
 12 13  1  0  0  0
 12 17  1  0  0  0
 13 14  2  0  0  0
 14 15  1  0  0  0
 15 16  2  0  0  0
 17 18  2  0  0  0
 17 19  1  0  0  0
 19 20  1  0  0  0
 19 21  1  0  0  0
 21 22  1  0  0  0
 22 23  2  0  0  0
 22 24  1  0  0  0
 24 25  1  0  0  0
M  END
>  <CHROM.0>
-176.26634716,176.01722025,-3.13021072,-83.21182569,70.09781078,-166.01387432

>  <CHROM.1>
-113.35047266,103.40623912,94.92995742,108.56487564,131.36814175,0.79101567
24.54909014,26.54748608,79.65173051,0.26253060,-0.44571590,-1.34340576

>  <FORMUL>
      TOL    C16 H14 F3 N1 O3 S1

>  <HET>
 TOL  A 320      24

>  <HETNAM>
     TOL TOLRESTAT

>  <Name>
TOL.pdb

>  <RI>
1.7946e+07

>  <Rbt.Current_Directory>
/home/malgorzata/Desktop/rDOCK_IFD/Wyniki/1_aldose_reductase/IFD

>  <Rbt.Executable>
rbdock ($Id: //depot/dev/client3/rdock/2013.1/src/exe/rbdock.cxx#4 $)

>  <Rbt.Library>
libRbt.so (2013.1, Build901 2013/11/27)

>  <Rbt.Parameter_File>
/home/malgorzata/Desktop/rDock_2013.1_src/data/scripts/dock.prm

>  <Rbt.Receptor>
cavity.prm

>  <SCORE>
-13.34

>  <SCORE.INTER>
-10.0126

>  <SCORE.INTER.CONST>
1

>  <SCORE.INTER.POLAR>
-2.21966

>  <SCORE.INTER.REPUL>
0

>  <SCORE.INTER.ROT>
5

>  <SCORE.INTER.VDW>
-12.8658

>  <SCORE.INTER.norm>
-0.417193

>  <SCORE.INTRA>
-4.83022

>  <SCORE.INTRA.DIHEDRAL>
4.76609

>  <SCORE.INTRA.DIHEDRAL.0>
16.9783

>  <SCORE.INTRA.POLAR>
0

>  <SCORE.INTRA.POLAR.0>
0

>  <SCORE.INTRA.REPUL>
0

>  <SCORE.INTRA.REPUL.0>
0

>  <SCORE.INTRA.VDW>
-7.21327

>  <SCORE.INTRA.VDW.0>
4.87734

>  <SCORE.INTRA.norm>
-0.201259

>  <SCORE.RESTR>
0

>  <SCORE.RESTR.CAVITY>
0

>  <SCORE.RESTR.norm>
0

>  <SCORE.SYSTEM>
1.50282

>  <SCORE.SYSTEM.CONST>
0

>  <SCORE.SYSTEM.DIHEDRAL>
1.47469

>  <SCORE.SYSTEM.VDW>
0.765474

>  <SCORE.SYSTEM.norm>
0.0626174

>  <SCORE.heavy>
24

>  <SCORE.norm>
-0.555835

$$$$
TOL.pdb
  rDOCK(R)          3D
libRbt.so/2013.1/901 2013/11/27
 25 26  0  0  0  0  0  0  0  0999 V2000
   19.3027   22.7596   80.5252 C   0  0  0  0  0  0
   19.6681   23.3379   81.6969 F   0  0  0  0  0  0
   18.5505   21.6717   80.8394 F   0  0  0  0  0  0
   18.4965   23.6290   79.8597 F   0  0  0  0  0  0
   20.5316   22.3872   79.6677 C   0  0  0  0  0  0
   21.8414   22.8776   79.9089 C   0  0  0  0  0  0
   22.0553   23.7023   80.9181 O   0  0  0  0  0  0
   22.8092   24.8450   80.5482 C   0  0  0  0  0  0
   22.8973   22.4772   79.0610 C   0  0  0  0  0  0
   22.6659   21.6054   77.9910 C   0  0  0  0  0  0
   21.3666   21.1184   77.7469 C   0  0  0  0  0  0
   21.1456   20.2389   76.6613 C   0  0  0  0  0  0
   19.8503   19.7528   76.4192 C   0  0  0  0  0  0
   18.7870   20.1341   77.2407 C   0  0  0  0  0  0
   19.0109   21.0046   78.3148 C   0  0  0  0  0  0
   20.2992   21.5052   78.5793 C   0  0  0  0  0  0
   22.2354   19.7747   75.7239 C   0  0  0  0  0  0
   23.5281   18.8308   76.3357 S   0  0  0  0  0  0
   22.1706   20.0925   74.4301 N   0  0  0  0  0  0
   21.0061   20.8048   73.9158 C   0  0  0  0  0  0
   23.2331   19.7286   73.4981 C   0  0  0  0  0  0
   24.5110   20.5478   73.7481 C   0  0  0  0  0  0
   25.6087   20.0597   73.6874 O   0  0  0  0  0  0
   24.3172   21.8410   74.0300 O   0  0  0  0  0  0
   25.0517   22.4025   74.1823 H   0  0  0  0  0  0
  1  2  1  0  0  0
  1  3  1  0  0  0
  1  4  1  0  0  0
  1  5  1  0  0  0
  5  6  2  0  0  0
  5 16  1  0  0  0
  6  7  1  0  0  0
  6  9  1  0  0  0
  7  8  1  0  0  0
  9 10  2  0  0  0
 10 11  1  0  0  0
 11 12  2  0  0  0
 11 16  1  0  0  0
 12 13  1  0  0  0
 12 17  1  0  0  0
 13 14  2  0  0  0
 14 15  1  0  0  0
 15 16  2  0  0  0
 17 18  2  0  0  0
 17 19  1  0  0  0
 19 20  1  0  0  0
 19 21  1  0  0  0
 21 22  1  0  0  0
 22 23  2  0  0  0
 22 24  1  0  0  0
 24 25  1  0  0  0
M  END
>  <CHROM.0>
8.73675419,63.56696198,2.68154777,129.76774270,175.10628363,-179.83975250

>  <CHROM.1>
-14.56175174,-131.64502374,63.59042208,-70.49967886,139.88654881,-179.18891190
21.55967804,21.40066962,77.58100862,2.09060889,0.31074460,0.95290092

>  <FORMUL>
      TOL    C16 H14 F3 N1 O3 S1

>  <HET>
 TOL  A 320      24

>  <HETNAM>
     TOL TOLRESTAT

>  <Name>
TOL.pdb

>  <RI>
1.7946e+07

>  <Rbt.Current_Directory>
/home/malgorzata/Desktop/rDOCK_IFD/Wyniki/1_aldose_reductase/IFD

>  <Rbt.Executable>
rbdock ($Id: //depot/dev/client3/rdock/2013.1/src/exe/rbdock.cxx#4 $)

>  <Rbt.Library>
libRbt.so (2013.1, Build901 2013/11/27)

>  <Rbt.Parameter_File>
/home/malgorzata/Desktop/rDock_2013.1_src/data/scripts/dock.prm

>  <Rbt.Receptor>
cavity.prm

>  <SCORE>
-12.4957

>  <SCORE.INTER>
-8.97043

>  <SCORE.INTER.CONST>
1

>  <SCORE.INTER.POLAR>
-0.894427

>  <SCORE.INTER.REPUL>
0.00027109

>  <SCORE.INTER.ROT>
5

>  <SCORE.INTER.VDW>
-16.3307

>  <SCORE.INTER.norm>
-0.373768

>  <SCORE.INTRA>
-3.85415

>  <SCORE.INTRA.DIHEDRAL>
0.33412

>  <SCORE.INTRA.DIHEDRAL.0>
16.9783

>  <SCORE.INTRA.POLAR>
0

>  <SCORE.INTRA.POLAR.0>
0

>  <SCORE.INTRA.REPUL>
0

>  <SCORE.INTRA.REPUL.0>
0

>  <SCORE.INTRA.VDW>
-4.02121

>  <SCORE.INTRA.VDW.0>
4.87734

>  <SCORE.INTRA.norm>
-0.160589

>  <SCORE.RESTR>
0

>  <SCORE.RESTR.CAVITY>
0

>  <SCORE.RESTR.norm>
0

>  <SCORE.SYSTEM>
0.328845

>  <SCORE.SYSTEM.CONST>
0

>  <SCORE.SYSTEM.DIHEDRAL>
0.711164

>  <SCORE.SYSTEM.VDW>
-0.0267371

>  <SCORE.SYSTEM.norm>
0.0137019

>  <SCORE.heavy>
24

>  <SCORE.norm>
-0.520656

$$$$
TOL.pdb
  rDOCK(R)          3D
libRbt.so/2013.1/901 2013/11/27
 25 26  0  0  0  0  0  0  0  0999 V2000
   21.9061   24.3792   81.3245 C   0  0  0  0  0  0
   21.2969   23.1767   81.1701 F   0  0  0  0  0  0
   20.9548   25.3313   81.1331 F   0  0  0  0  0  0
   22.3220   24.4782   82.6152 F   0  0  0  0  0  0
   23.0948   24.5430   80.3527 C   0  0  0  0  0  0
   23.4703   23.5682   79.3921 C   0  0  0  0  0  0
   22.7832   22.4441   79.2982 O   0  0  0  0  0  0
   21.8942   22.4302   78.1935 C   0  0  0  0  0  0
   24.5782   23.8152   78.5521 C   0  0  0  0  0  0
   25.3053   25.0064   78.6567 C   0  0  0  0  0  0
   24.9370   25.9755   79.6107 C   0  0  0  0  0  0
   25.6810   27.1747   79.7074 C   0  0  0  0  0  0
   25.3126   28.1409   80.6578 C   0  0  0  0  0  0
   24.2224   27.9218   81.5030 C   0  0  0  0  0  0
   23.4885   26.7332   81.4030 C   0  0  0  0  0  0
   23.8364   25.7494   80.4588 C   0  0  0  0  0  0
   26.8720   27.4944   78.8349 C   0  0  0  0  0  0
   28.4373   27.5440   79.5302 S   0  0  0  0  0  0
   26.6925   27.7195   77.5324 N   0  0  0  0  0  0
   25.3657   27.5660   76.9460 C   0  0  0  0  0  0
   27.7999   28.1012   76.6618 C   0  0  0  0  0  0
   28.2042   29.5706   76.8705 C   0  0  0  0  0  0
   29.1971   30.0394   76.3793 O   0  0  0  0  0  0
   27.3718   30.2922   77.6294 O   0  0  0  0  0  0
   27.5478   31.1991   77.7859 H   0  0  0  0  0  0
  1  2  1  0  0  0
  1  3  1  0  0  0
  1  4  1  0  0  0
  1  5  1  0  0  0
  5  6  2  0  0  0
  5 16  1  0  0  0
  6  7  1  0  0  0
  6  9  1  0  0  0
  7  8  1  0  0  0
  9 10  2  0  0  0
 10 11  1  0  0  0
 11 12  2  0  0  0
 11 16  1  0  0  0
 12 13  1  0  0  0
 12 17  1  0  0  0
 13 14  2  0  0  0
 14 15  1  0  0  0
 15 16  2  0  0  0
 17 18  2  0  0  0
 17 19  1  0  0  0
 19 20  1  0  0  0
 19 21  1  0  0  0
 21 22  1  0  0  0
 22 23  2  0  0  0
 22 24  1  0  0  0
 24 25  1  0  0  0
M  END
>  <CHROM.0>
1.54374182,61.84160221,-179.67571652,128.66391663,174.50102338,58.68351402

>  <CHROM.1>
1.81817862,102.64256228,-111.01926740,-75.38130725,170.44571987,-178.89204566
24.87367338,26.24024339,79.39339471,3.00950730,-0.77889398,-2.29670219

>  <FORMUL>
      TOL    C16 H14 F3 N1 O3 S1

>  <HET>
 TOL  A 320      24

>  <HETNAM>
     TOL TOLRESTAT

>  <Name>
TOL.pdb

>  <RI>
1.7946e+07

>  <Rbt.Current_Directory>
/home/malgorzata/Desktop/rDOCK_IFD/Wyniki/1_aldose_reductase/IFD

>  <Rbt.Executable>
rbdock ($Id: //depot/dev/client3/rdock/2013.1/src/exe/rbdock.cxx#4 $)

>  <Rbt.Library>
libRbt.so (2013.1, Build901 2013/11/27)

>  <Rbt.Parameter_File>
/home/malgorzata/Desktop/rDock_2013.1_src/data/scripts/dock.prm

>  <Rbt.Receptor>
cavity.prm

>  <SCORE>
-13.0022

>  <SCORE.INTER>
-7.89782

>  <SCORE.INTER.CONST>
1

>  <SCORE.INTER.POLAR>
-1.45194

>  <SCORE.INTER.REPUL>
0

>  <SCORE.INTER.ROT>
5

>  <SCORE.INTER.VDW>
-13.3612

>  <SCORE.INTER.norm>
-0.329076

>  <SCORE.INTRA>
-5.17303

>  <SCORE.INTRA.DIHEDRAL>
3.11899

>  <SCORE.INTRA.DIHEDRAL.0>
16.9783

>  <SCORE.INTRA.POLAR>
0

>  <SCORE.INTRA.POLAR.0>
0

>  <SCORE.INTRA.REPUL>
0

>  <SCORE.INTRA.REPUL.0>
0

>  <SCORE.INTRA.VDW>
-6.73252

>  <SCORE.INTRA.VDW.0>
4.87734

>  <SCORE.INTRA.norm>
-0.215543

>  <SCORE.RESTR>
0

>  <SCORE.RESTR.CAVITY>
0

>  <SCORE.RESTR.norm>
0

>  <SCORE.SYSTEM>
0.0686162

>  <SCORE.SYSTEM.CONST>
0

>  <SCORE.SYSTEM.DIHEDRAL>
0.583753

>  <SCORE.SYSTEM.VDW>
-0.22326

>  <SCORE.SYSTEM.norm>
0.00285901

>  <SCORE.heavy>
24

>  <SCORE.norm>
-0.541759

$$$$
TOL.pdb
  rDOCK(R)          3D
libRbt.so/2013.1/901 2013/11/27
 25 26  0  0  0  0  0  0  0  0999 V2000
   24.1600   24.7497   74.5481 C   0  0  0  0  0  0
   24.7115   23.5103   74.5724 F   0  0  0  0  0  0
   24.0706   25.1168   73.2422 F   0  0  0  0  0  0
   22.8915   24.6559   75.0286 F   0  0  0  0  0  0
   24.9864   25.7557   75.3783 C   0  0  0  0  0  0
   25.5934   26.9180   74.8355 C   0  0  0  0  0  0
   25.4624   27.1836   73.5484 O   0  0  0  0  0  0
   26.5899   26.7880   72.7847 C   0  0  0  0  0  0
   26.3327   27.7725   75.6825 C   0  0  0  0  0  0
   26.4713   27.4860   77.0452 C   0  0  0  0  0  0
   25.8723   26.3318   77.5873 C   0  0  0  0  0  0
   26.0211   26.0527   78.9661 C   0  0  0  0  0  0
   25.4227   24.9025   79.5061 C   0  0  0  0  0  0
   24.6877   24.0388   78.6910 C   0  0  0  0  0  0
   24.5426   24.3197   77.3266 C   0  0  0  0  0  0
   25.1315   25.4658   76.7609 C   0  0  0  0  0  0
   26.7971   26.9306   79.9196 C   0  0  0  0  0  0
   28.3736   27.4498   79.4942 S   0  0  0  0  0  0
   26.2404   27.3024   81.0734 N   0  0  0  0  0  0
   24.8586   26.9357   81.3632 C   0  0  0  0  0  0
   26.9741   28.0906   82.0585 C   0  0  0  0  0  0
   28.0219   27.2405   82.7973 C   0  0  0  0  0  0
   29.0747   26.9422   82.2978 O   0  0  0  0  0  0
   27.6845   26.8628   84.0354 O   0  0  0  0  0  0
   28.2742   26.3408   84.5430 H   0  0  0  0  0  0
  1  2  1  0  0  0
  1  3  1  0  0  0
  1  4  1  0  0  0
  1  5  1  0  0  0
  5  6  2  0  0  0
  5 16  1  0  0  0
  6  7  1  0  0  0
  6  9  1  0  0  0
  7  8  1  0  0  0
  9 10  2  0  0  0
 10 11  1  0  0  0
 11 12  2  0  0  0
 11 16  1  0  0  0
 12 13  1  0  0  0
 12 17  1  0  0  0
 13 14  2  0  0  0
 14 15  1  0  0  0
 15 16  2  0  0  0
 17 18  2  0  0  0
 17 19  1  0  0  0
 19 20  1  0  0  0
 19 21  1  0  0  0
 21 22  1  0  0  0
 22 23  2  0  0  0
 22 24  1  0  0  0
 24 25  1  0  0  0
M  END
>  <CHROM.0>
5.62705418,61.00425282,6.98023829,148.68151322,68.48750220,-58.65391684

>  <CHROM.1>
119.15526325,-98.95351007,-48.72922458,-74.16200780,77.45381618,179.82151684
25.95626593,26.21432333,77.85306564,2.05307553,-0.76516505,-1.43927821

>  <FORMUL>
      TOL    C16 H14 F3 N1 O3 S1

>  <HET>
 TOL  A 320      24

>  <HETNAM>
     TOL TOLRESTAT

>  <Name>
TOL.pdb

>  <RI>
1.7946e+07

>  <Rbt.Current_Directory>
/home/malgorzata/Desktop/rDOCK_IFD/Wyniki/1_aldose_reductase/IFD

>  <Rbt.Executable>
rbdock ($Id: //depot/dev/client3/rdock/2013.1/src/exe/rbdock.cxx#4 $)

>  <Rbt.Library>
libRbt.so (2013.1, Build901 2013/11/27)

>  <Rbt.Parameter_File>
/home/malgorzata/Desktop/rDock_2013.1_src/data/scripts/dock.prm

>  <Rbt.Receptor>
cavity.prm

>  <SCORE>
-17.4443

>  <SCORE.INTER>
-13.2464

>  <SCORE.INTER.CONST>
1

>  <SCORE.INTER.POLAR>
-2.06081

>  <SCORE.INTER.REPUL>
0.00118768

>  <SCORE.INTER.ROT>
5

>  <SCORE.INTER.VDW>
-16.6456

>  <SCORE.INTER.norm>
-0.551932

>  <SCORE.INTRA>
-4.49609

>  <SCORE.INTRA.DIHEDRAL>
-0.568662

>  <SCORE.INTRA.DIHEDRAL.0>
16.9783

>  <SCORE.INTRA.POLAR>
0

>  <SCORE.INTRA.POLAR.0>
0

>  <SCORE.INTRA.REPUL>
0

>  <SCORE.INTRA.REPUL.0>
0

>  <SCORE.INTRA.VDW>
-4.21176

>  <SCORE.INTRA.VDW.0>
4.87734

>  <SCORE.INTRA.norm>
-0.187337

>  <SCORE.RESTR>
0

>  <SCORE.RESTR.CAVITY>
0

>  <SCORE.RESTR.norm>
0

>  <SCORE.SYSTEM>
0.298124

>  <SCORE.SYSTEM.CONST>
0

>  <SCORE.SYSTEM.DIHEDRAL>
0.885721

>  <SCORE.SYSTEM.VDW>
-0.144737

>  <SCORE.SYSTEM.norm>
0.0124218

>  <SCORE.heavy>
24

>  <SCORE.norm>
-0.726847

$$$$
TOL.pdb
  rDOCK(R)          3D
libRbt.so/2013.1/901 2013/11/27
 25 26  0  0  0  0  0  0  0  0999 V2000
   23.2614   24.9027   79.5195 C   0  0  0  0  0  0
   23.6162   25.6605   78.4516 F   0  0  0  0  0  0
   24.4103   24.5618   80.1612 F   0  0  0  0  0  0
   22.5410   25.6826   80.3689 F   0  0  0  0  0  0
   22.4464   23.6631   79.0911 C   0  0  0  0  0  0
   21.1644   23.3427   79.6087 C   0  0  0  0  0  0
   20.6080   24.1304   80.5110 O   0  0  0  0  0  0
   20.8210   23.6853   81.8404 C   0  0  0  0  0  0
   20.5041   22.1810   79.1517 C   0  0  0  0  0  0
   21.0984   21.3475   78.1975 C   0  0  0  0  0  0
   22.3720   21.6610   77.6831 C   0  0  0  0  0  0
   22.9624   20.8095   76.7201 C   0  0  0  0  0  0
   24.2316   21.1232   76.2068 C   0  0  0  0  0  0
   24.9082   22.2648   76.6427 C   0  0  0  0  0  0
   24.3192   23.1051   77.5957 C   0  0  0  0  0  0
   23.0484   22.8137   78.1253 C   0  0  0  0  0  0
   22.3031   19.5569   76.1928 C   0  0  0  0  0  0
   22.0589   18.2261   77.2443 S   0  0  0  0  0  0
   21.9063   19.5075   74.9202 N   0  0  0  0  0  0
   22.0286   20.6907   74.0760 C   0  0  0  0  0  0
   21.3291   18.2968   74.3448 C   0  0  0  0  0  0
   19.8346   18.1650   74.6844 C   0  0  0  0  0  0
   18.9702   18.5135   73.9239 O   0  0  0  0  0  0
   19.5631   17.6297   75.8799 O   0  0  0  0  0  0
   18.6735   17.5049   76.1462 H   0  0  0  0  0  0
  1  2  1  0  0  0
  1  3  1  0  0  0
  1  4  1  0  0  0
  1  5  1  0  0  0
  5  6  2  0  0  0
  5 16  1  0  0  0
  6  7  1  0  0  0
  6  9  1  0  0  0
  7  8  1  0  0  0
  9 10  2  0  0  0
 10 11  1  0  0  0
 11 12  2  0  0  0
 11 16  1  0  0  0
 12 13  1  0  0  0
 12 17  1  0  0  0
 13 14  2  0  0  0
 14 15  1  0  0  0
 15 16  2  0  0  0
 17 18  2  0  0  0
 17 19  1  0  0  0
 19 20  1  0  0  0
 19 21  1  0  0  0
 21 22  1  0  0  0
 22 23  2  0  0  0
 22 24  1  0  0  0
 24 25  1  0  0  0
M  END
>  <CHROM.0>
-36.63248686,-58.55675907,-7.12861348,-116.46165051,66.45488250,-59.25672954

>  <CHROM.1>
-125.14431834,-96.03329844,-67.03743569,81.89423468,97.05803419,-178.87567021
22.08444055,21.65599350,77.59892213,-1.29365196,-0.51167945,-2.34464173

>  <FORMUL>
      TOL    C16 H14 F3 N1 O3 S1

>  <HET>
 TOL  A 320      24

>  <HETNAM>
     TOL TOLRESTAT

>  <Name>
TOL.pdb

>  <RI>
1.7946e+07

>  <Rbt.Current_Directory>
/home/malgorzata/Desktop/rDOCK_IFD/Wyniki/1_aldose_reductase/IFD

>  <Rbt.Executable>
rbdock ($Id: //depot/dev/client3/rdock/2013.1/src/exe/rbdock.cxx#4 $)

>  <Rbt.Library>
libRbt.so (2013.1, Build901 2013/11/27)

>  <Rbt.Parameter_File>
/home/malgorzata/Desktop/rDock_2013.1_src/data/scripts/dock.prm

>  <Rbt.Receptor>
cavity.prm

>  <SCORE>
-12.3372

>  <SCORE.INTER>
-8.65216

>  <SCORE.INTER.CONST>
1

>  <SCORE.INTER.POLAR>
-1.74141

>  <SCORE.INTER.REPUL>
0

>  <SCORE.INTER.ROT>
5

>  <SCORE.INTER.VDW>
-13.1314

>  <SCORE.INTER.norm>
-0.360507

>  <SCORE.INTRA>
-5.25061

>  <SCORE.INTRA.DIHEDRAL>
3.19124

>  <SCORE.INTRA.DIHEDRAL.0>
16.9783

>  <SCORE.INTRA.POLAR>
0

>  <SCORE.INTRA.POLAR.0>
0

>  <SCORE.INTRA.REPUL>
0

>  <SCORE.INTRA.REPUL.0>
0

>  <SCORE.INTRA.VDW>
-6.84623

>  <SCORE.INTRA.VDW.0>
4.87734

>  <SCORE.INTRA.norm>
-0.218775

>  <SCORE.RESTR>
0

>  <SCORE.RESTR.CAVITY>
0

>  <SCORE.RESTR.norm>
0

>  <SCORE.SYSTEM>
1.56559

>  <SCORE.SYSTEM.CONST>
0

>  <SCORE.SYSTEM.DIHEDRAL>
2.41274

>  <SCORE.SYSTEM.VDW>
0.359221

>  <SCORE.SYSTEM.norm>
0.0652329

>  <SCORE.heavy>
24

>  <SCORE.norm>
-0.514049

$$$$
TOL.pdb
  rDOCK(R)          3D
libRbt.so/2013.1/901 2013/11/27
 25 26  0  0  0  0  0  0  0  0999 V2000
   18.8220   21.9150   79.8697 C   0  0  0  0  0  0
   19.1864   22.3491   81.1024 F   0  0  0  0  0  0
   17.9851   20.8597   80.0540 F   0  0  0  0  0  0
   18.1021   22.9012   79.2715 F   0  0  0  0  0  0
   20.0507   21.5386   79.0137 C   0  0  0  0  0  0
   21.3876   21.8589   79.3663 C   0  0  0  0  0  0
   21.6288   22.5167   80.4858 O   0  0  0  0  0  0
   21.7240   23.9185   80.2939 C   0  0  0  0  0  0
   22.4411   21.4708   78.5098 C   0  0  0  0  0  0
   22.1810   20.7763   77.3230 C   0  0  0  0  0  0
   20.8550   20.4586   76.9684 C   0  0  0  0  0  0
   20.6053   19.7575   75.7654 C   0  0  0  0  0  0
   19.2833   19.4401   75.4131 C   0  0  0  0  0  0
   18.2218   19.8136   76.2406 C   0  0  0  0  0  0
   18.4742   20.5070   77.4309 C   0  0  0  0  0  0
   19.7895   20.8365   77.8072 C   0  0  0  0  0  0
   21.6909   19.3150   74.8128 C   0  0  0  0  0  0
   22.4812   17.8169   75.0725 S   0  0  0  0  0  0
   22.0106   20.0881   73.7739 N   0  0  0  0  0  0
   21.2501   21.3057   73.5149 C   0  0  0  0  0  0
   23.0990   19.7394   72.8664 C   0  0  0  0  0  0
   24.4676   20.1421   73.4419 C   0  0  0  0  0  0
   25.2278   20.8604   72.8478 O   0  0  0  0  0  0
   24.7501   19.6445   74.6510 O   0  0  0  0  0  0
   25.5732   19.8361   75.0558 H   0  0  0  0  0  0
  1  2  1  0  0  0
  1  3  1  0  0  0
  1  4  1  0  0  0
  1  5  1  0  0  0
  5  6  2  0  0  0
  5 16  1  0  0  0
  6  7  1  0  0  0
  6  9  1  0  0  0
  7  8  1  0  0  0
  9 10  2  0  0  0
 10 11  1  0  0  0
 11 12  2  0  0  0
 11 16  1  0  0  0
 12 13  1  0  0  0
 12 17  1  0  0  0
 13 14  2  0  0  0
 14 15  1  0  0  0
 15 16  2  0  0  0
 17 18  2  0  0  0
 17 19  1  0  0  0
 19 20  1  0  0  0
 19 21  1  0  0  0
 21 22  1  0  0  0
 22 23  2  0  0  0
 22 24  1  0  0  0
 24 25  1  0  0  0
M  END
>  <CHROM.0>
6.85704906,60.12667713,179.19871447,-102.91460353,68.16488117,-59.14603992

>  <CHROM.1>
-11.86918629,-94.27662822,86.05344547,-81.30894649,-123.96385799,178.89777958
21.11199168,20.74567060,76.92317703,2.13382192,0.26844920,1.01858645

>  <FORMUL>
      TOL    C16 H14 F3 N1 O3 S1

>  <HET>
 TOL  A 320      24

>  <HETNAM>
     TOL TOLRESTAT

>  <Name>
TOL.pdb

>  <RI>
1.7946e+07

>  <Rbt.Current_Directory>
/home/malgorzata/Desktop/rDOCK_IFD/Wyniki/1_aldose_reductase/IFD

>  <Rbt.Executable>
rbdock ($Id: //depot/dev/client3/rdock/2013.1/src/exe/rbdock.cxx#4 $)

>  <Rbt.Library>
libRbt.so (2013.1, Build901 2013/11/27)

>  <Rbt.Parameter_File>
/home/malgorzata/Desktop/rDock_2013.1_src/data/scripts/dock.prm

>  <Rbt.Receptor>
cavity.prm

>  <SCORE>
-15.1334

>  <SCORE.INTER>
-10.0537

>  <SCORE.INTER.CONST>
1

>  <SCORE.INTER.POLAR>
-1.15916

>  <SCORE.INTER.REPUL>
0

>  <SCORE.INTER.ROT>
5

>  <SCORE.INTER.VDW>
-16.5125

>  <SCORE.INTER.norm>
-0.418903

>  <SCORE.INTRA>
-5.17446

>  <SCORE.INTRA.DIHEDRAL>
4.94634

>  <SCORE.INTRA.DIHEDRAL.0>
16.9783

>  <SCORE.INTRA.POLAR>
0

>  <SCORE.INTRA.POLAR.0>
0

>  <SCORE.INTRA.REPUL>
0

>  <SCORE.INTRA.REPUL.0>
0

>  <SCORE.INTRA.VDW>
-7.64763

>  <SCORE.INTRA.VDW.0>
4.87734

>  <SCORE.INTRA.norm>
-0.215602

>  <SCORE.RESTR>
0

>  <SCORE.RESTR.CAVITY>
0

>  <SCORE.RESTR.norm>
0

>  <SCORE.SYSTEM>
0.0947607

>  <SCORE.SYSTEM.CONST>
0

>  <SCORE.SYSTEM.DIHEDRAL>
0.805322

>  <SCORE.SYSTEM.VDW>
-0.307901

>  <SCORE.SYSTEM.norm>
0.00394836

>  <SCORE.heavy>
24

>  <SCORE.norm>
-0.630557

$$$$
TOL.pdb
  rDOCK(R)          3D
libRbt.so/2013.1/901 2013/11/27
 25 26  0  0  0  0  0  0  0  0999 V2000
   28.1500   27.7484   82.2639 C   0  0  0  0  0  0
   28.1278   26.6907   83.1133 F   0  0  0  0  0  0
   27.3927   28.7254   82.8296 F   0  0  0  0  0  0
   29.4266   28.2124   82.2020 F   0  0  0  0  0  0
   27.6407   27.3597   80.8590 C   0  0  0  0  0  0
   28.4327   27.4312   79.6835 C   0  0  0  0  0  0
   29.6827   27.8504   79.7618 O   0  0  0  0  0  0
   29.8438   29.1922   79.3322 C   0  0  0  0  0  0
   27.8684   27.0550   78.4449 C   0  0  0  0  0  0
   26.5427   26.6139   78.3658 C   0  0  0  0  0  0
   25.7525   26.5439   79.5302 C   0  0  0  0  0  0
   24.4134   26.0978   79.4366 C   0  0  0  0  0  0
   23.6266   26.0271   80.5979 C   0  0  0  0  0  0
   24.1585   26.3951   81.8359 C   0  0  0  0  0  0
   25.4850   26.8355   81.9235 C   0  0  0  0  0  0
   26.2947   26.9148   80.7752 C   0  0  0  0  0  0
   23.7579   25.6804   78.1412 C   0  0  0  0  0  0
   22.6111   26.7184   77.4040 S   0  0  0  0  0  0
   24.0904   24.5168   77.5801 N   0  0  0  0  0  0
   25.1463   23.7022   78.1711 C   0  0  0  0  0  0
   23.4351   24.0366   76.3677 C   0  0  0  0  0  0
   24.2695   24.3449   75.1127 C   0  0  0  0  0  0
   24.2257   23.6563   74.1274 O   0  0  0  0  0  0
   25.0410   25.4350   75.1904 O   0  0  0  0  0  0
   25.5491   25.7031   74.4502 H   0  0  0  0  0  0
  1  2  1  0  0  0
  1  3  1  0  0  0
  1  4  1  0  0  0
  1  5  1  0  0  0
  5  6  2  0  0  0
  5 16  1  0  0  0
  6  7  1  0  0  0
  6  9  1  0  0  0
  7  8  1  0  0  0
  9 10  2  0  0  0
 10 11  1  0  0  0
 11 12  2  0  0  0
 11 16  1  0  0  0
 12 13  1  0  0  0
 12 17  1  0  0  0
 13 14  2  0  0  0
 14 15  1  0  0  0
 15 16  2  0  0  0
 17 18  2  0  0  0
 17 19  1  0  0  0
 19 20  1  0  0  0
 19 21  1  0  0  0
 21 22  1  0  0  0
 22 23  2  0  0  0
 22 24  1  0  0  0
 24 25  1  0  0  0
M  END
>  <CHROM.0>
-0.15817795,64.30009795,177.37534760,134.52361948,174.24074930,-179.68538527

>  <CHROM.1>
-117.95588466,-102.19058864,-105.86991639,98.01612004,151.15282676,-177.45197330
25.99623270,26.46303232,79.25449502,0.90431452,0.31829052,1.30492363

>  <FORMUL>
      TOL    C16 H14 F3 N1 O3 S1

>  <HET>
 TOL  A 320      24

>  <HETNAM>
     TOL TOLRESTAT

>  <Name>
TOL.pdb

>  <RI>
1.7946e+07

>  <Rbt.Current_Directory>
/home/malgorzata/Desktop/rDOCK_IFD/Wyniki/1_aldose_reductase/IFD

>  <Rbt.Executable>
rbdock ($Id: //depot/dev/client3/rdock/2013.1/src/exe/rbdock.cxx#4 $)

>  <Rbt.Library>
libRbt.so (2013.1, Build901 2013/11/27)

>  <Rbt.Parameter_File>
/home/malgorzata/Desktop/rDock_2013.1_src/data/scripts/dock.prm

>  <Rbt.Receptor>
cavity.prm

>  <SCORE>
-15.059

>  <SCORE.INTER>
-9.85684

>  <SCORE.INTER.CONST>
1

>  <SCORE.INTER.POLAR>
-1.37188

>  <SCORE.INTER.REPUL>
0

>  <SCORE.INTER.ROT>
5

>  <SCORE.INTER.VDW>
-15.5924

>  <SCORE.INTER.norm>
-0.410702

>  <SCORE.INTRA>
-5.27752

>  <SCORE.INTRA.DIHEDRAL>
3.94667

>  <SCORE.INTRA.DIHEDRAL.0>
16.9783

>  <SCORE.INTRA.POLAR>
0

>  <SCORE.INTRA.POLAR.0>
0

>  <SCORE.INTRA.REPUL>
0

>  <SCORE.INTRA.REPUL.0>
0

>  <SCORE.INTRA.VDW>
-7.25086

>  <SCORE.INTRA.VDW.0>
4.87734

>  <SCORE.INTRA.norm>
-0.219897

>  <SCORE.RESTR>
0

>  <SCORE.RESTR.CAVITY>
0

>  <SCORE.RESTR.norm>
0

>  <SCORE.SYSTEM>
0.0753847

>  <SCORE.SYSTEM.CONST>
0

>  <SCORE.SYSTEM.DIHEDRAL>
0.674873

>  <SCORE.SYSTEM.VDW>
-0.262052

>  <SCORE.SYSTEM.norm>
0.00314103

>  <SCORE.heavy>
24

>  <SCORE.norm>
-0.627457

$$$$
TOL.pdb
  rDOCK(R)          3D
libRbt.so/2013.1/901 2013/11/27
 25 26  0  0  0  0  0  0  0  0999 V2000
   23.2915   26.4249   81.0259 C   0  0  0  0  0  0
   22.4509   27.1338   81.8206 F   0  0  0  0  0  0
   23.9242   27.3202   80.2221 F   0  0  0  0  0  0
   24.2382   25.8538   81.8173 F   0  0  0  0  0  0
   22.5355   25.3501   80.2150 C   0  0  0  0  0  0
   21.1293   25.1658   80.2655 C   0  0  0  0  0  0
   20.3955   25.9427   81.0415 O   0  0  0  0  0  0
   19.9023   27.0892   80.3683 C   0  0  0  0  0  0
   20.5361   24.1491   79.4853 C   0  0  0  0  0  0
   21.3176   23.3262   78.6664 C   0  0  0  0  0  0
   22.7142   23.5045   78.6155 C   0  0  0  0  0  0
   23.4931   22.6652   77.7849 C   0  0  0  0  0  0
   24.8852   22.8442   77.7337 C   0  0  0  0  0  0
   25.4985   23.8407   78.4964 C   0  0  0  0  0  0
   24.7230   24.6696   79.3167 C   0  0  0  0  0  0
   23.3264   24.5114   79.3856 C   0  0  0  0  0  0
   22.9141   21.5645   76.9274 C   0  0  0  0  0  0
   22.0449   20.2873   77.6686 S   0  0  0  0  0  0
   23.0739   21.6080   75.6038 N   0  0  0  0  0  0
   23.7244   22.7600   74.9893 C   0  0  0  0  0  0
   22.5953   20.5340   74.7392 C   0  0  0  0  0  0
   23.2318   19.1832   75.1087 C   0  0  0  0  0  0
   22.6701   18.1361   74.9213 O   0  0  0  0  0  0
   24.4551   19.2533   75.6454 O   0  0  0  0  0  0
   24.8710   20.0855   75.7565 H   0  0  0  0  0  0
  1  2  1  0  0  0
  1  3  1  0  0  0
  1  4  1  0  0  0
  1  5  1  0  0  0
  5  6  2  0  0  0
  5 16  1  0  0  0
  6  7  1  0  0  0
  6  9  1  0  0  0
  7  8  1  0  0  0
  9 10  2  0  0  0
 10 11  1  0  0  0
 11 12  2  0  0  0
 11 16  1  0  0  0
 12 13  1  0  0  0
 12 17  1  0  0  0
 13 14  2  0  0  0
 14 15  1  0  0  0
 15 16  2  0  0  0
 17 18  2  0  0  0
 17 19  1  0  0  0
 19 20  1  0  0  0
 19 21  1  0  0  0
 21 22  1  0  0  0
 22 23  2  0  0  0
 22 24  1  0  0  0
 24 25  1  0  0  0
M  END
>  <CHROM.0>
4.68090510,62.96306395,-176.63455677,129.77128029,66.28665481,-170.55374782

>  <CHROM.1>
2.08799463,92.12215382,-59.84870400,-58.76046078,151.26664163,-1.21097153
22.85186263,23.39277059,78.44593231,-1.66001063,-0.14855514,-2.47097107

>  <FORMUL>
      TOL    C16 H14 F3 N1 O3 S1

>  <HET>
 TOL  A 320      24

>  <HETNAM>
     TOL TOLRESTAT

>  <Name>
TOL.pdb

>  <RI>
1.7946e+07

>  <Rbt.Current_Directory>
/home/malgorzata/Desktop/rDOCK_IFD/Wyniki/1_aldose_reductase/IFD

>  <Rbt.Executable>
rbdock ($Id: //depot/dev/client3/rdock/2013.1/src/exe/rbdock.cxx#4 $)

>  <Rbt.Library>
libRbt.so (2013.1, Build901 2013/11/27)

>  <Rbt.Parameter_File>
/home/malgorzata/Desktop/rDock_2013.1_src/data/scripts/dock.prm

>  <Rbt.Receptor>
cavity.prm

>  <SCORE>
-11.7077

>  <SCORE.INTER>
-7.04975

>  <SCORE.INTER.CONST>
1

>  <SCORE.INTER.POLAR>
-1.46965

>  <SCORE.INTER.REPUL>
0.0947951

>  <SCORE.INTER.ROT>
5

>  <SCORE.INTER.VDW>
-12.9269

>  <SCORE.INTER.norm>
-0.29374

>  <SCORE.INTRA>
-4.88686

>  <SCORE.INTRA.DIHEDRAL>
1.91342

>  <SCORE.INTRA.DIHEDRAL.0>
16.9783

>  <SCORE.INTRA.POLAR>
0

>  <SCORE.INTRA.POLAR.0>
0

>  <SCORE.INTRA.REPUL>
0

>  <SCORE.INTRA.REPUL.0>
0

>  <SCORE.INTRA.VDW>
-5.84357

>  <SCORE.INTRA.VDW.0>
4.87734

>  <SCORE.INTRA.norm>
-0.203619

>  <SCORE.RESTR>
0

>  <SCORE.RESTR.CAVITY>
0

>  <SCORE.RESTR.norm>
0

>  <SCORE.SYSTEM>
0.228889

>  <SCORE.SYSTEM.CONST>
0

>  <SCORE.SYSTEM.DIHEDRAL>
0.909746

>  <SCORE.SYSTEM.VDW>
-0.225984

>  <SCORE.SYSTEM.norm>
0.00953703

>  <SCORE.heavy>
24

>  <SCORE.norm>
-0.487822

$$$$
