TOL.pdb
  rDOCK(R)          3D
libRbt.so/2013.1/901 2013/11/27
 25 26  0  0  0  0  0  0  0  0999 V2000
   22.8424   28.5631   69.9875 C   0  0  0  0  0  0
   22.9922   27.3100   69.4895 F   0  0  0  0  0  0
   22.3179   28.4325   71.2348 F   0  0  0  0  0  0
   24.0786   29.1124   70.1251 F   0  0  0  0  0  0
   21.9549   29.4355   69.0733 C   0  0  0  0  0  0
   20.9951   30.3630   69.5555 C   0  0  0  0  0  0
   20.8267   30.5128   70.8569 O   0  0  0  0  0  0
   19.5029   30.2301   71.2793 C   0  0  0  0  0  0
   20.2307   31.1105   68.6329 C   0  0  0  0  0  0
   20.4102   30.9468   67.2547 C   0  0  0  0  0  0
   21.3604   30.0252   66.7722 C   0  0  0  0  0  0
   21.5312   29.8681   65.3768 C   0  0  0  0  0  0
   22.4795   28.9501   64.8965 C   0  0  0  0  0  0
   23.2477   28.1960   65.7865 C   0  0  0  0  0  0
   23.0754   28.3557   67.1672 C   0  0  0  0  0  0
   22.1326   29.2691   67.6743 C   0  0  0  0  0  0
   20.7451   30.6412   64.3442 C   0  0  0  0  0  0
   19.4956   29.8554   63.4739 S   0  0  0  0  0  0
   21.0232   31.9286   64.1332 N   0  0  0  0  0  0
   22.0179   32.6010   64.9617 C   0  0  0  0  0  0
   20.3412   32.6996   63.0986 C   0  0  0  0  0  0
   19.1420   33.4762   63.6688 C   0  0  0  0  0  0
   18.5287   34.2798   63.0168 O   0  0  0  0  0  0
   18.8243   33.1909   64.9365 O   0  0  0  0  0  0
   18.0998   33.6213   65.3462 H   0  0  0  0  0  0
  1  2  1  0  0  0
  1  3  1  0  0  0
  1  4  1  0  0  0
  1  5  1  0  0  0
  5  6  2  0  0  0
  5 16  1  0  0  0
  6  7  1  0  0  0
  6  9  1  0  0  0
  7  8  1  0  0  0
  9 10  2  0  0  0
 10 11  1  0  0  0
 11 12  2  0  0  0
 11 16  1  0  0  0
 12 13  1  0  0  0
 12 17  1  0  0  0
 13 14  2  0  0  0
 14 15  1  0  0  0
 15 16  2  0  0  0
 17 18  2  0  0  0
 17 19  1  0  0  0
 19 20  1  0  0  0
 19 21  1  0  0  0
 21 22  1  0  0  0
 22 23  2  0  0  0
 22 24  1  0  0  0
 24 25  1  0  0  0
M  END
>  <CHROM.0>
162.43641229,73.71579645,-63.77969705,-168.87943956,53.58741936,-49.42950933
172.47632635,-93.30393702,-154.27535279,60.41209309,-58.77128257,-60.43845913
61.39815280,-56.84993249,-178.62711494,172.55705943

>  <CHROM.1>
140.75229355,-120.76781947,-105.28999833,95.28797177,172.15879556,-179.48136167
21.18832625,30.34808998,66.90257476,-1.02879237,0.85734382,-1.50805846

>  <FORMUL>
      TOL    C16 H14 F3 N1 O3 S1

>  <HET>
 TOL  A 320      24

>  <HETNAM>
     TOL TOLRESTAT

>  <Name>
TOL.pdb

>  <RI>
2.51149e+07

>  <Rbt.Current_Directory>
/home/malgorzata/Desktop/rDOCK_IFD/Wyniki/1_aldose_reductase/IFD

>  <Rbt.Executable>
rbdock ($Id: //depot/dev/client3/rdock/2013.1/src/exe/rbdock.cxx#4 $)

>  <Rbt.Library>
libRbt.so (2013.1, Build901 2013/11/27)

>  <Rbt.Parameter_File>
/home/malgorzata/Desktop/rDock_2013.1_src/data/scripts/dock.prm

>  <Rbt.Receptor>
cavity.prm

>  <SCORE>
-31.209

>  <SCORE.INTER>
-9.48634

>  <SCORE.INTER.CONST>
1

>  <SCORE.INTER.POLAR>
-0.0998536

>  <SCORE.INTER.REPUL>
0.123559

>  <SCORE.INTER.ROT>
5

>  <SCORE.INTER.VDW>
-20.1646

>  <SCORE.INTER.norm>
-0.395264

>  <SCORE.INTRA>
-4.10659

>  <SCORE.INTRA.DIHEDRAL>
2.93407

>  <SCORE.INTRA.DIHEDRAL.0>
16.9783

>  <SCORE.INTRA.POLAR>
0

>  <SCORE.INTRA.POLAR.0>
0

>  <SCORE.INTRA.REPUL>
0

>  <SCORE.INTRA.REPUL.0>
0

>  <SCORE.INTRA.VDW>
-5.57363

>  <SCORE.INTRA.VDW.0>
4.87734

>  <SCORE.INTRA.norm>
-0.171108

>  <SCORE.RESTR>
0

>  <SCORE.RESTR.CAVITY>
0

>  <SCORE.RESTR.norm>
0

>  <SCORE.SYSTEM>
-17.616

>  <SCORE.SYSTEM.CONST>
0

>  <SCORE.SYSTEM.DIHEDRAL>
3.9539

>  <SCORE.SYSTEM.POLAR>
-5.02775

>  <SCORE.SYSTEM.REPUL>
0.0519029

>  <SCORE.SYSTEM.VDW>
-2.75817

>  <SCORE.SYSTEM.norm>
-0.734002

>  <SCORE.heavy>
24

>  <SCORE.norm>
-1.30037

$$$$
TOL.pdb
  rDOCK(R)          3D
libRbt.so/2013.1/901 2013/11/27
 25 26  0  0  0  0  0  0  0  0999 V2000
   17.1941   30.3858   63.3780 C   0  0  0  0  0  0
   17.8865   31.5517   63.4245 F   0  0  0  0  0  0
   15.8764   30.7116   63.3031 F   0  0  0  0  0  0
   17.5186   29.7488   62.2214 F   0  0  0  0  0  0
   17.5025   29.4927   64.5994 C   0  0  0  0  0  0
   18.2524   28.2899   64.5296 C   0  0  0  0  0  0
   18.7288   27.8829   63.3669 O   0  0  0  0  0  0
   18.2043   26.6289   62.9629 C   0  0  0  0  0  0
   18.4748   27.5437   65.7076 C   0  0  0  0  0  0
   17.9660   27.9770   66.9372 C   0  0  0  0  0  0
   17.2189   29.1693   67.0100 C   0  0  0  0  0  0
   16.7088   29.5957   68.2586 C   0  0  0  0  0  0
   15.9651   30.7849   68.3308 C   0  0  0  0  0  0
   15.7281   31.5416   67.1809 C   0  0  0  0  0  0
   16.2358   31.1157   65.9471 C   0  0  0  0  0  0
   16.9846   29.9283   65.8478 C   0  0  0  0  0  0
   16.9169   28.8410   69.5505 C   0  0  0  0  0  0
   16.0153   27.4146   69.8483 S   0  0  0  0  0  0
   17.8096   29.2857   70.4364 N   0  0  0  0  0  0
   18.6397   30.4405   70.1121 C   0  0  0  0  0  0
   17.9968   28.6329   71.7282 C   0  0  0  0  0  0
   18.3030   27.1341   71.5664 C   0  0  0  0  0  0
   17.8817   26.3065   72.3310 O   0  0  0  0  0  0
   19.0634   26.8144   70.5133 O   0  0  0  0  0  0
   19.2668   25.9168   70.3376 H   0  0  0  0  0  0
  1  2  1  0  0  0
  1  3  1  0  0  0
  1  4  1  0  0  0
  1  5  1  0  0  0
  5  6  2  0  0  0
  5 16  1  0  0  0
  6  7  1  0  0  0
  6  9  1  0  0  0
  7  8  1  0  0  0
  9 10  2  0  0  0
 10 11  1  0  0  0
 11 12  2  0  0  0
 11 16  1  0  0  0
 12 13  1  0  0  0
 12 17  1  0  0  0
 13 14  2  0  0  0
 14 15  1  0  0  0
 15 16  2  0  0  0
 17 18  2  0  0  0
 17 19  1  0  0  0
 19 20  1  0  0  0
 19 21  1  0  0  0
 21 22  1  0  0  0
 22 23  2  0  0  0
 22 24  1  0  0  0
 24 25  1  0  0  0
M  END
>  <CHROM.0>
62.27213568,61.49977863,-63.45826765,1.68393046,-179.57923640,-42.88774490
-176.47724593,-143.12560515,-152.46728133,-59.26354567,-58.77758022,63.74426200
-172.98894153,64.34372669,-178.76923780,92.07980560

>  <CHROM.1>
-109.30867113,-117.95041266,-75.55664051,54.94804692,-143.11487256,-178.03766499
17.41342461,28.97719291,67.06398764,1.64353727,1.12779275,-1.38796708

>  <FORMUL>
      TOL    C16 H14 F3 N1 O3 S1

>  <HET>
 TOL  A 320      24

>  <HETNAM>
     TOL TOLRESTAT

>  <Name>
TOL.pdb

>  <RI>
2.51149e+07

>  <Rbt.Current_Directory>
/home/malgorzata/Desktop/rDOCK_IFD/Wyniki/1_aldose_reductase/IFD

>  <Rbt.Executable>
rbdock ($Id: //depot/dev/client3/rdock/2013.1/src/exe/rbdock.cxx#4 $)

>  <Rbt.Library>
libRbt.so (2013.1, Build901 2013/11/27)

>  <Rbt.Parameter_File>
/home/malgorzata/Desktop/rDock_2013.1_src/data/scripts/dock.prm

>  <Rbt.Receptor>
cavity.prm

>  <SCORE>
-35.108

>  <SCORE.INTER>
-12.3494

>  <SCORE.INTER.CONST>
1

>  <SCORE.INTER.POLAR>
-0.435396

>  <SCORE.INTER.REPUL>
0

>  <SCORE.INTER.ROT>
5

>  <SCORE.INTER.VDW>
-21.269

>  <SCORE.INTER.norm>
-0.514557

>  <SCORE.INTRA>
-4.13088

>  <SCORE.INTRA.DIHEDRAL>
3.26852

>  <SCORE.INTRA.DIHEDRAL.0>
16.9783

>  <SCORE.INTRA.POLAR>
0

>  <SCORE.INTRA.POLAR.0>
0

>  <SCORE.INTRA.REPUL>
0

>  <SCORE.INTRA.REPUL.0>
0

>  <SCORE.INTRA.VDW>
-5.76514

>  <SCORE.INTRA.VDW.0>
4.87734

>  <SCORE.INTRA.norm>
-0.17212

>  <SCORE.RESTR>
0

>  <SCORE.RESTR.CAVITY>
0

>  <SCORE.RESTR.norm>
0

>  <SCORE.SYSTEM>
-18.6278

>  <SCORE.SYSTEM.CONST>
0

>  <SCORE.SYSTEM.DIHEDRAL>
2.41941

>  <SCORE.SYSTEM.POLAR>
-4.79595

>  <SCORE.SYSTEM.REPUL>
0.286685

>  <SCORE.SYSTEM.VDW>
-4.9647

>  <SCORE.SYSTEM.norm>
-0.776158

>  <SCORE.heavy>
24

>  <SCORE.norm>
-1.46284

$$$$
TOL.pdb
  rDOCK(R)          3D
libRbt.so/2013.1/901 2013/11/27
 25 26  0  0  0  0  0  0  0  0999 V2000
   15.7629   31.2107   64.6608 C   0  0  0  0  0  0
   15.7949   31.4797   63.3314 F   0  0  0  0  0  0
   15.0588   32.2135   65.2498 F   0  0  0  0  0  0
   15.0575   30.0624   64.8415 F   0  0  0  0  0  0
   17.1847   31.0774   65.2481 C   0  0  0  0  0  0
   18.3684   31.3931   64.5317 C   0  0  0  0  0  0
   18.2832   31.8291   63.2879 O   0  0  0  0  0  0
   18.4960   33.2267   63.1761 C   0  0  0  0  0  0
   19.6221   31.2320   65.1612 C   0  0  0  0  0  0
   19.7081   30.7672   66.4784 C   0  0  0  0  0  0
   18.5353   30.4504   67.1921 C   0  0  0  0  0  0
   18.6359   29.9801   68.5224 C   0  0  0  0  0  0
   17.4663   29.6656   69.2336 C   0  0  0  0  0  0
   16.2132   29.8135   68.6348 C   0  0  0  0  0  0
   16.1187   30.2802   67.3177 C   0  0  0  0  0  0
   17.2751   30.6028   66.5835 C   0  0  0  0  0  0
   19.9476   29.7908   69.2472 C   0  0  0  0  0  0
   20.9584   31.1455   69.5286 S   0  0  0  0  0  0
   20.2959   28.5751   69.6717 N   0  0  0  0  0  0
   19.3698   27.4592   69.5143 C   0  0  0  0  0  0
   21.5831   28.3280   70.3136 C   0  0  0  0  0  0
   22.5680   27.6323   69.3585 C   0  0  0  0  0  0
   23.0682   26.5687   69.6149 O   0  0  0  0  0  0
   22.8238   28.2879   68.2209 O   0  0  0  0  0  0
   22.4028   29.1068   68.0473 H   0  0  0  0  0  0
  1  2  1  0  0  0
  1  3  1  0  0  0
  1  4  1  0  0  0
  1  5  1  0  0  0
  5  6  2  0  0  0
  5 16  1  0  0  0
  6  7  1  0  0  0
  6  9  1  0  0  0
  7  8  1  0  0  0
  9 10  2  0  0  0
 10 11  1  0  0  0
 11 12  2  0  0  0
 11 16  1  0  0  0
 12 13  1  0  0  0
 12 17  1  0  0  0
 13 14  2  0  0  0
 14 15  1  0  0  0
 15 16  2  0  0  0
 17 18  2  0  0  0
 17 19  1  0  0  0
 19 20  1  0  0  0
 19 21  1  0  0  0
 21 22  1  0  0  0
 22 23  2  0  0  0
 22 24  1  0  0  0
 24 25  1  0  0  0
M  END
>  <CHROM.0>
-65.29611406,-169.93939095,65.80775556,-166.56552249,62.25171046,-41.58347039
-38.40083053,101.81851586,-152.95969356,-60.04277500,47.03542742,166.96658872
-172.82776920,62.56083793,-178.11244438,-69.56467838

>  <CHROM.1>
8.72681099,103.81995927,62.06810723,-103.78535369,-121.73952281,-0.84921859
18.72456846,30.19480671,67.05667195,2.28211478,0.03734964,-1.05601859

>  <FORMUL>
      TOL    C16 H14 F3 N1 O3 S1

>  <HET>
 TOL  A 320      24

>  <HETNAM>
     TOL TOLRESTAT

>  <Name>
TOL.pdb

>  <RI>
2.51149e+07

>  <Rbt.Current_Directory>
/home/malgorzata/Desktop/rDOCK_IFD/Wyniki/1_aldose_reductase/IFD

>  <Rbt.Executable>
rbdock ($Id: //depot/dev/client3/rdock/2013.1/src/exe/rbdock.cxx#4 $)

>  <Rbt.Library>
libRbt.so (2013.1, Build901 2013/11/27)

>  <Rbt.Parameter_File>
/home/malgorzata/Desktop/rDock_2013.1_src/data/scripts/dock.prm

>  <Rbt.Receptor>
cavity.prm

>  <SCORE>
-30.8576

>  <SCORE.INTER>
-14.2385

>  <SCORE.INTER.CONST>
1

>  <SCORE.INTER.POLAR>
-2.42773

>  <SCORE.INTER.REPUL>
0

>  <SCORE.INTER.ROT>
5

>  <SCORE.INTER.VDW>
-16.3842

>  <SCORE.INTER.norm>
-0.593272

>  <SCORE.INTRA>
-4.69965

>  <SCORE.INTRA.DIHEDRAL>
1.90327

>  <SCORE.INTRA.DIHEDRAL.0>
16.9783

>  <SCORE.INTRA.POLAR>
0

>  <SCORE.INTRA.POLAR.0>
0

>  <SCORE.INTRA.REPUL>
0

>  <SCORE.INTRA.REPUL.0>
0

>  <SCORE.INTRA.VDW>
-5.65128

>  <SCORE.INTRA.VDW.0>
4.87734

>  <SCORE.INTRA.norm>
-0.195819

>  <SCORE.RESTR>
0

>  <SCORE.RESTR.CAVITY>
0

>  <SCORE.RESTR.norm>
0

>  <SCORE.SYSTEM>
-11.9194

>  <SCORE.SYSTEM.CONST>
0

>  <SCORE.SYSTEM.DIHEDRAL>
6.57342

>  <SCORE.SYSTEM.POLAR>
-3.69418

>  <SCORE.SYSTEM.REPUL>
0.413684

>  <SCORE.SYSTEM.VDW>
-4.71435

>  <SCORE.SYSTEM.norm>
-0.496644

>  <SCORE.heavy>
24

>  <SCORE.norm>
-1.28573

$$$$
TOL.pdb
  rDOCK(R)          3D
libRbt.so/2013.1/901 2013/11/27
 25 26  0  0  0  0  0  0  0  0999 V2000
   23.2106   19.5980   73.2044 C   0  0  0  0  0  0
   22.1766   20.1108   72.4910 F   0  0  0  0  0  0
   22.6834   19.0719   74.3417 F   0  0  0  0  0  0
   23.7438   18.5690   72.4933 F   0  0  0  0  0  0
   24.2816   20.6694   73.5029 C   0  0  0  0  0  0
   25.6129   20.6135   73.0144 C   0  0  0  0  0  0
   25.9896   19.5990   72.2572 O   0  0  0  0  0  0
   26.0812   19.9385   70.8835 C   0  0  0  0  0  0
   26.5171   21.6451   73.3498 C   0  0  0  0  0  0
   26.1147   22.7170   74.1546 C   0  0  0  0  0  0
   24.7947   22.7747   74.6435 C   0  0  0  0  0  0
   24.4009   23.8627   75.4572 C   0  0  0  0  0  0
   23.0845   23.9203   75.9433 C   0  0  0  0  0  0
   22.1699   22.9125   75.6289 C   0  0  0  0  0  0
   22.5643   21.8376   74.8223 C   0  0  0  0  0  0
   23.8771   21.7566   74.3220 C   0  0  0  0  0  0
   25.3225   24.9947   75.8460 C   0  0  0  0  0  0
   25.7966   26.1400   74.6630 S   0  0  0  0  0  0
   25.7438   25.0971   77.1075 N   0  0  0  0  0  0
   25.2406   24.1725   78.1174 C   0  0  0  0  0  0
   26.6898   26.1301   77.5173 C   0  0  0  0  0  0
   28.1362   25.7479   77.1592 C   0  0  0  0  0  0
   28.4325   25.2893   76.0874 O   0  0  0  0  0  0
   29.0417   25.9675   78.1190 O   0  0  0  0  0  0
   29.9451   25.7725   77.9642 H   0  0  0  0  0  0
  1  2  1  0  0  0
  1  3  1  0  0  0
  1  4  1  0  0  0
  1  5  1  0  0  0
  5  6  2  0  0  0
  5 16  1  0  0  0
  6  7  1  0  0  0
  6  9  1  0  0  0
  7  8  1  0  0  0
  9 10  2  0  0  0
 10 11  1  0  0  0
 11 12  2  0  0  0
 11 16  1  0  0  0
 12 13  1  0  0  0
 12 17  1  0  0  0
 13 14  2  0  0  0
 14 15  1  0  0  0
 15 16  2  0  0  0
 17 18  2  0  0  0
 17 19  1  0  0  0
 19 20  1  0  0  0
 19 21  1  0  0  0
 21 22  1  0  0  0
 22 23  2  0  0  0
 22 24  1  0  0  0
 24 25  1  0  0  0
M  END
>  <CHROM.0>
-65.88295273,75.10392852,-62.70915587,6.27293857,66.19786896,79.11077298
179.09383745,-66.01240707,-148.06227963,-64.24565002,177.81667683,-57.82139379
-177.60397495,-57.16080303,-176.93342593,-116.99237799

>  <CHROM.1>
-116.43647725,103.85976058,71.24401654,-80.15142679,44.90430898,-178.88925057
25.09746344,22.69467437,74.74546083,2.00936782,-0.26572846,-2.43033723

>  <FORMUL>
      TOL    C16 H14 F3 N1 O3 S1

>  <HET>
 TOL  A 320      24

>  <HETNAM>
     TOL TOLRESTAT

>  <Name>
TOL.pdb

>  <RI>
2.51149e+07

>  <Rbt.Current_Directory>
/home/malgorzata/Desktop/rDOCK_IFD/Wyniki/1_aldose_reductase/IFD

>  <Rbt.Executable>
rbdock ($Id: //depot/dev/client3/rdock/2013.1/src/exe/rbdock.cxx#4 $)

>  <Rbt.Library>
libRbt.so (2013.1, Build901 2013/11/27)

>  <Rbt.Parameter_File>
/home/malgorzata/Desktop/rDock_2013.1_src/data/scripts/dock.prm

>  <Rbt.Receptor>
cavity.prm

>  <SCORE>
-25.2111

>  <SCORE.INTER>
-7.00329

>  <SCORE.INTER.CONST>
1

>  <SCORE.INTER.POLAR>
-0.230213

>  <SCORE.INTER.REPUL>
0

>  <SCORE.INTER.ROT>
5

>  <SCORE.INTER.VDW>
-16.6206

>  <SCORE.INTER.norm>
-0.291804

>  <SCORE.INTRA>
-5.22796

>  <SCORE.INTRA.DIHEDRAL>
3.3907

>  <SCORE.INTRA.DIHEDRAL.0>
16.9783

>  <SCORE.INTRA.POLAR>
0

>  <SCORE.INTRA.POLAR.0>
0

>  <SCORE.INTRA.REPUL>
0

>  <SCORE.INTRA.REPUL.0>
0

>  <SCORE.INTRA.VDW>
-6.9233

>  <SCORE.INTRA.VDW.0>
4.87734

>  <SCORE.INTRA.norm>
-0.217831

>  <SCORE.RESTR>
0

>  <SCORE.RESTR.CAVITY>
0

>  <SCORE.RESTR.norm>
0

>  <SCORE.SYSTEM>
-12.9799

>  <SCORE.SYSTEM.CONST>
0

>  <SCORE.SYSTEM.DIHEDRAL>
3.2322

>  <SCORE.SYSTEM.POLAR>
-3.62022

>  <SCORE.SYSTEM.REPUL>
0.00110483

>  <SCORE.SYSTEM.VDW>
-2.29272

>  <SCORE.SYSTEM.norm>
-0.540827

>  <SCORE.heavy>
24

>  <SCORE.norm>
-1.05046

$$$$
TOL.pdb
  rDOCK(R)          3D
libRbt.so/2013.1/901 2013/11/27
 25 26  0  0  0  0  0  0  0  0999 V2000
   18.6150   27.9994   70.8661 C   0  0  0  0  0  0
   19.6932   28.5031   71.5177 F   0  0  0  0  0  0
   18.7826   26.6515   70.8081 F   0  0  0  0  0  0
   17.5138   28.2365   71.6277 F   0  0  0  0  0  0
   18.4551   28.6251   69.4636 C   0  0  0  0  0  0
   17.2818   29.2923   69.0250 C   0  0  0  0  0  0
   16.2484   29.4016   69.8401 O   0  0  0  0  0  0
   16.2209   30.6372   70.5355 C   0  0  0  0  0  0
   17.2370   29.8270   67.7188 C   0  0  0  0  0  0
   18.3333   29.7066   66.8572 C   0  0  0  0  0  0
   19.4989   29.0428   67.2882 C   0  0  0  0  0  0
   20.5995   28.9266   66.4072 C   0  0  0  0  0  0
   21.7616   28.2658   66.8379 C   0  0  0  0  0  0
   21.8325   27.7256   68.1239 C   0  0  0  0  0  0
   20.7404   27.8438   68.9928 C   0  0  0  0  0  0
   19.5647   28.5016   68.5860 C   0  0  0  0  0  0
   20.6099   29.4803   65.0018 C   0  0  0  0  0  0
   20.1899   28.4603   63.6906 S   0  0  0  0  0  0
   20.9313   30.7592   64.8004 N   0  0  0  0  0  0
   21.1801   31.6328   65.9418 C   0  0  0  0  0  0
   21.0243   31.3228   63.4574 C   0  0  0  0  0  0
   19.6643   31.8502   62.9689 C   0  0  0  0  0  0
   18.8623   31.1436   62.4171 O   0  0  0  0  0  0
   19.4327   33.1460   63.2066 O   0  0  0  0  0  0
   18.6230   33.5340   62.9387 H   0  0  0  0  0  0
  1  2  1  0  0  0
  1  3  1  0  0  0
  1  4  1  0  0  0
  1  5  1  0  0  0
  5  6  2  0  0  0
  5 16  1  0  0  0
  6  7  1  0  0  0
  6  9  1  0  0  0
  7  8  1  0  0  0
  9 10  2  0  0  0
 10 11  1  0  0  0
 11 12  2  0  0  0
 11 16  1  0  0  0
 12 13  1  0  0  0
 12 17  1  0  0  0
 13 14  2  0  0  0
 14 15  1  0  0  0
 15 16  2  0  0  0
 17 18  2  0  0  0
 17 19  1  0  0  0
 19 20  1  0  0  0
 19 21  1  0  0  0
 21 22  1  0  0  0
 22 23  2  0  0  0
 22 24  1  0  0  0
 24 25  1  0  0  0
M  END
>  <CHROM.0>
-63.79045340,-169.46199149,-60.21393638,7.66655968,62.83605047,-171.56786982
-168.90140563,-104.00325874,-154.87670397,60.21397727,-61.09966557,166.45054842
-172.93790558,63.98285884,-177.76844473,104.46146491

>  <CHROM.1>
-123.47440679,95.81177954,-94.90298861,87.86018077,-86.80709049,-179.80384406
19.32758587,29.41020558,67.26122312,-1.87803253,0.59184607,-1.05295630

>  <FORMUL>
      TOL    C16 H14 F3 N1 O3 S1

>  <HET>
 TOL  A 320      24

>  <HETNAM>
     TOL TOLRESTAT

>  <Name>
TOL.pdb

>  <RI>
2.51149e+07

>  <Rbt.Current_Directory>
/home/malgorzata/Desktop/rDOCK_IFD/Wyniki/1_aldose_reductase/IFD

>  <Rbt.Executable>
rbdock ($Id: //depot/dev/client3/rdock/2013.1/src/exe/rbdock.cxx#4 $)

>  <Rbt.Library>
libRbt.so (2013.1, Build901 2013/11/27)

>  <Rbt.Parameter_File>
/home/malgorzata/Desktop/rDock_2013.1_src/data/scripts/dock.prm

>  <Rbt.Receptor>
cavity.prm

>  <SCORE>
-35.0834

>  <SCORE.INTER>
-11.9384

>  <SCORE.INTER.CONST>
1

>  <SCORE.INTER.POLAR>
-2.34313

>  <SCORE.INTER.REPUL>
0.0908662

>  <SCORE.INTER.ROT>
5

>  <SCORE.INTER.VDW>
-14.826

>  <SCORE.INTER.norm>
-0.497431

>  <SCORE.INTRA>
-5.10534

>  <SCORE.INTRA.DIHEDRAL>
4.97155

>  <SCORE.INTRA.DIHEDRAL.0>
16.9783

>  <SCORE.INTRA.POLAR>
0

>  <SCORE.INTRA.POLAR.0>
0

>  <SCORE.INTRA.REPUL>
0

>  <SCORE.INTRA.REPUL.0>
0

>  <SCORE.INTRA.VDW>
-7.59112

>  <SCORE.INTRA.VDW.0>
4.87734

>  <SCORE.INTRA.norm>
-0.212723

>  <SCORE.RESTR>
0

>  <SCORE.RESTR.CAVITY>
0

>  <SCORE.RESTR.norm>
0

>  <SCORE.SYSTEM>
-18.0397

>  <SCORE.SYSTEM.CONST>
0

>  <SCORE.SYSTEM.DIHEDRAL>
3.24885

>  <SCORE.SYSTEM.POLAR>
-4.80192

>  <SCORE.SYSTEM.VDW>
-3.33757

>  <SCORE.SYSTEM.norm>
-0.751653

>  <SCORE.heavy>
24

>  <SCORE.norm>
-1.46181

$$$$
TOL.pdb
  rDOCK(R)          3D
libRbt.so/2013.1/901 2013/11/27
 25 26  0  0  0  0  0  0  0  0999 V2000
   18.9513   28.2731   62.9264 C   0  0  0  0  0  0
   17.8252   27.7507   62.3788 F   0  0  0  0  0  0
   20.0047   27.6760   62.3084 F   0  0  0  0  0  0
   18.9973   29.5957   62.6142 F   0  0  0  0  0  0
   18.9857   28.0708   64.4568 C   0  0  0  0  0  0
   17.9457   27.4484   65.1951 C   0  0  0  0  0  0
   16.8722   27.0051   64.5662 O   0  0  0  0  0  0
   17.0013   25.6614   64.1318 C   0  0  0  0  0  0
   18.0745   27.3160   66.5951 C   0  0  0  0  0  0
   19.2124   27.7895   67.2580 C   0  0  0  0  0  0
   20.2458   28.4102   66.5288 C   0  0  0  0  0  0
   21.3901   28.8858   67.2109 C   0  0  0  0  0  0
   22.4205   29.5034   66.4831 C   0  0  0  0  0  0
   22.3184   29.6495   65.0978 C   0  0  0  0  0  0
   21.1838   29.1763   64.4269 C   0  0  0  0  0  0
   20.1377   28.5533   65.1325 C   0  0  0  0  0  0
   21.5838   28.7696   68.7044 C   0  0  0  0  0  0
   22.5517   27.5029   69.3330 S   0  0  0  0  0  0
   21.0117   29.6621   69.5140 N   0  0  0  0  0  0
   20.2821   30.7915   68.9482 C   0  0  0  0  0  0
   21.1102   29.5524   70.9660 C   0  0  0  0  0  0
   22.4024   30.1969   71.4963 C   0  0  0  0  0  0
   22.5212   31.3873   71.6227 O   0  0  0  0  0  0
   23.3811   29.3422   71.8139 O   0  0  0  0  0  0
   23.2760   28.4263   71.6463 H   0  0  0  0  0  0
  1  2  1  0  0  0
  1  3  1  0  0  0
  1  4  1  0  0  0
  1  5  1  0  0  0
  5  6  2  0  0  0
  5 16  1  0  0  0
  6  7  1  0  0  0
  6  9  1  0  0  0
  7  8  1  0  0  0
  9 10  2  0  0  0
 10 11  1  0  0  0
 11 12  2  0  0  0
 11 16  1  0  0  0
 12 13  1  0  0  0
 12 17  1  0  0  0
 13 14  2  0  0  0
 14 15  1  0  0  0
 15 16  2  0  0  0
 17 18  2  0  0  0
 17 19  1  0  0  0
 19 20  1  0  0  0
 19 21  1  0  0  0
 21 22  1  0  0  0
 22 23  2  0  0  0
 22 24  1  0  0  0
 24 25  1  0  0  0
M  END
>  <CHROM.0>
60.22197742,176.20531389,66.20213409,9.67774573,66.76142944,78.15851899,175.64677244
101.13913566,-150.59707697,-178.88158695,-62.11114657,166.31322341,-176.28518024
61.71147196,-174.06824387,116.42981600

>  <CHROM.1>
-1.67501061,89.74265297,98.92180680,85.36964164,78.27495389,4.64483862,20.33479962
28.60332799,66.68980375,-2.15888668,0.60168792,1.67878941

>  <FORMUL>
      TOL    C16 H14 F3 N1 O3 S1

>  <HET>
 TOL  A 320      24

>  <HETNAM>
     TOL TOLRESTAT

>  <Name>
TOL.pdb

>  <RI>
2.51149e+07

>  <Rbt.Current_Directory>
/home/malgorzata/Desktop/rDOCK_IFD/Wyniki/1_aldose_reductase/IFD

>  <Rbt.Executable>
rbdock ($Id: //depot/dev/client3/rdock/2013.1/src/exe/rbdock.cxx#4 $)

>  <Rbt.Library>
libRbt.so (2013.1, Build901 2013/11/27)

>  <Rbt.Parameter_File>
/home/malgorzata/Desktop/rDock_2013.1_src/data/scripts/dock.prm

>  <Rbt.Receptor>
cavity.prm

>  <SCORE>
-39.0394

>  <SCORE.INTER>
-14.7959

>  <SCORE.INTER.CONST>
1

>  <SCORE.INTER.POLAR>
-1.67055

>  <SCORE.INTER.REPUL>
0

>  <SCORE.INTER.ROT>
5

>  <SCORE.INTER.VDW>
-19.516

>  <SCORE.INTER.norm>
-0.616496

>  <SCORE.INTRA>
-5.43171

>  <SCORE.INTRA.DIHEDRAL>
4.99204

>  <SCORE.INTRA.DIHEDRAL.0>
16.9783

>  <SCORE.INTRA.POLAR>
-0.257782

>  <SCORE.INTRA.POLAR.0>
0

>  <SCORE.INTRA.REPUL>
0

>  <SCORE.INTRA.REPUL.0>
0

>  <SCORE.INTRA.VDW>
-7.05127

>  <SCORE.INTRA.VDW.0>
4.87734

>  <SCORE.INTRA.norm>
-0.226321

>  <SCORE.RESTR>
0

>  <SCORE.RESTR.CAVITY>
0

>  <SCORE.RESTR.norm>
0

>  <SCORE.SYSTEM>
-18.8118

>  <SCORE.SYSTEM.CONST>
0

>  <SCORE.SYSTEM.DIHEDRAL>
3.74186

>  <SCORE.SYSTEM.POLAR>
-4.61646

>  <SCORE.SYSTEM.REPUL>
0.0156779

>  <SCORE.SYSTEM.VDW>
-5.06517

>  <SCORE.SYSTEM.norm>
-0.783825

>  <SCORE.heavy>
24

>  <SCORE.norm>
-1.62664

$$$$
TOL.pdb
  rDOCK(R)          3D
libRbt.so/2013.1/901 2013/11/27
 25 26  0  0  0  0  0  0  0  0999 V2000
   17.4726   28.2514   69.9417 C   0  0  0  0  0  0
   16.4664   27.4363   69.5369 F   0  0  0  0  0  0
   16.8934   29.3335   70.5263 F   0  0  0  0  0  0
   18.1791   27.6022   70.9052 F   0  0  0  0  0  0
   18.3901   28.6492   68.7651 C   0  0  0  0  0  0
   19.7603   28.2909   68.6754 C   0  0  0  0  0  0
   20.3135   27.5756   69.6380 O   0  0  0  0  0  0
   21.2151   28.3252   70.4357 C   0  0  0  0  0  0
   20.5133   28.7094   67.5565 C   0  0  0  0  0  0
   19.9240   29.4696   66.5399 C   0  0  0  0  0  0
   18.5646   29.8294   66.6267 C   0  0  0  0  0  0
   17.9812   30.5992   65.5932 C   0  0  0  0  0  0
   16.6256   30.9565   65.6797 C   0  0  0  0  0  0
   15.8579   30.5579   66.7763 C   0  0  0  0  0  0
   16.4398   29.7951   67.7966 C   0  0  0  0  0  0
   17.7956   29.4234   67.7337 C   0  0  0  0  0  0
   18.7356   31.0724   64.3730 C   0  0  0  0  0  0
   19.3110   29.9233   63.2396 S   0  0  0  0  0  0
   18.9317   32.3784   64.1856 N   0  0  0  0  0  0
   18.3396   33.3404   65.1085 C   0  0  0  0  0  0
   19.7142   32.8814   63.0610 C   0  0  0  0  0  0
   21.2250   32.7434   63.3154 C   0  0  0  0  0  0
   21.7387   33.1026   64.3421 O   0  0  0  0  0  0
   21.9261   32.1900   62.3196 O   0  0  0  0  0  0
   22.8578   32.1167   62.3870 H   0  0  0  0  0  0
  1  2  1  0  0  0
  1  3  1  0  0  0
  1  4  1  0  0  0
  1  5  1  0  0  0
  5  6  2  0  0  0
  5 16  1  0  0  0
  6  7  1  0  0  0
  6  9  1  0  0  0
  7  8  1  0  0  0
  9 10  2  0  0  0
 10 11  1  0  0  0
 11 12  2  0  0  0
 11 16  1  0  0  0
 12 13  1  0  0  0
 12 17  1  0  0  0
 13 14  2  0  0  0
 14 15  1  0  0  0
 15 16  2  0  0  0
 17 18  2  0  0  0
 17 19  1  0  0  0
 19 20  1  0  0  0
 19 21  1  0  0  0
 21 22  1  0  0  0
 22 23  2  0  0  0
 22 24  1  0  0  0
 24 25  1  0  0  0
M  END
>  <CHROM.0>
170.15381176,-49.31134533,-179.33104112,-166.09010613,63.54191276,-43.69738519
-167.61202424,-108.19865322,-150.54589303,60.83764548,-61.72261207,63.50392190
63.61262350,62.95418077,-178.20629411,-119.35029649

>  <CHROM.1>
-116.16603689,-108.34132225,66.13533704,-78.34741998,-48.36274488,176.73521509
18.87646989,30.04774710,66.71264157,1.83845394,-0.10976258,2.14949041

>  <FORMUL>
      TOL    C16 H14 F3 N1 O3 S1

>  <HET>
 TOL  A 320      24

>  <HETNAM>
     TOL TOLRESTAT

>  <Name>
TOL.pdb

>  <RI>
2.51149e+07

>  <Rbt.Current_Directory>
/home/malgorzata/Desktop/rDOCK_IFD/Wyniki/1_aldose_reductase/IFD

>  <Rbt.Executable>
rbdock ($Id: //depot/dev/client3/rdock/2013.1/src/exe/rbdock.cxx#4 $)

>  <Rbt.Library>
libRbt.so (2013.1, Build901 2013/11/27)

>  <Rbt.Parameter_File>
/home/malgorzata/Desktop/rDock_2013.1_src/data/scripts/dock.prm

>  <Rbt.Receptor>
cavity.prm

>  <SCORE>
-34.0657

>  <SCORE.INTER>
-9.54244

>  <SCORE.INTER.CONST>
1

>  <SCORE.INTER.POLAR>
-0.616818

>  <SCORE.INTER.REPUL>
0.00924445

>  <SCORE.INTER.ROT>
5

>  <SCORE.INTER.VDW>
-17.8915

>  <SCORE.INTER.norm>
-0.397602

>  <SCORE.INTRA>
-5.03258

>  <SCORE.INTRA.DIHEDRAL>
2.4928

>  <SCORE.INTRA.DIHEDRAL.0>
16.9783

>  <SCORE.INTRA.POLAR>
0

>  <SCORE.INTRA.POLAR.0>
0

>  <SCORE.INTRA.REPUL>
0

>  <SCORE.INTRA.REPUL.0>
0

>  <SCORE.INTRA.VDW>
-6.27898

>  <SCORE.INTRA.VDW.0>
4.87734

>  <SCORE.INTRA.norm>
-0.209691

>  <SCORE.RESTR>
0

>  <SCORE.RESTR.CAVITY>
0

>  <SCORE.RESTR.norm>
0

>  <SCORE.SYSTEM>
-19.4907

>  <SCORE.SYSTEM.CONST>
0

>  <SCORE.SYSTEM.DIHEDRAL>
3.33368

>  <SCORE.SYSTEM.POLAR>
-4.94891

>  <SCORE.SYSTEM.REPUL>
0.142194

>  <SCORE.SYSTEM.VDW>
-5.04218

>  <SCORE.SYSTEM.norm>
-0.812111

>  <SCORE.heavy>
24

>  <SCORE.norm>
-1.4194

$$$$
TOL.pdb
  rDOCK(R)          3D
libRbt.so/2013.1/901 2013/11/27
 25 26  0  0  0  0  0  0  0  0999 V2000
   16.1722   29.7790   66.3257 C   0  0  0  0  0  0
   16.2062   28.5844   65.6834 F   0  0  0  0  0  0
   15.5460   30.6557   65.4966 F   0  0  0  0  0  0
   15.3920   29.6412   67.4307 F   0  0  0  0  0  0
   17.5887   30.2568   66.7124 C   0  0  0  0  0  0
   18.2323   31.3775   66.1259 C   0  0  0  0  0  0
   17.6102   32.0739   65.1919 O   0  0  0  0  0  0
   18.0822   31.7913   63.8849 C   0  0  0  0  0  0
   19.5328   31.7287   66.5494 C   0  0  0  0  0  0
   20.1896   30.9864   67.5374 C   0  0  0  0  0  0
   19.5550   29.8718   68.1203 C   0  0  0  0  0  0
   20.2302   29.1289   69.1169 C   0  0  0  0  0  0
   19.5965   28.0186   69.6984 C   0  0  0  0  0  0
   18.3111   27.6474   69.2970 C   0  0  0  0  0  0
   17.6464   28.3865   68.3104 C   0  0  0  0  0  0
   18.2589   29.5035   67.7125 C   0  0  0  0  0  0
   21.6190   29.4588   69.6110 C   0  0  0  0  0  0
   22.9525   29.2988   68.5468 S   0  0  0  0  0  0
   21.7885   29.8841   70.8639 N   0  0  0  0  0  0
   20.6264   30.1138   71.7151 C   0  0  0  0  0  0
   23.1160   30.1479   71.4098 C   0  0  0  0  0  0
   23.7883   28.8587   71.9121 C   0  0  0  0  0  0
   23.9608   28.6383   73.0820 O   0  0  0  0  0  0
   24.1608   27.9973   70.9589 O   0  0  0  0  0  0
   24.6306   27.2195   71.1879 H   0  0  0  0  0  0
  1  2  1  0  0  0
  1  3  1  0  0  0
  1  4  1  0  0  0
  1  5  1  0  0  0
  5  6  2  0  0  0
  5 16  1  0  0  0
  6  7  1  0  0  0
  6  9  1  0  0  0
  7  8  1  0  0  0
  9 10  2  0  0  0
 10 11  1  0  0  0
 11 12  2  0  0  0
 11 16  1  0  0  0
 12 13  1  0  0  0
 12 17  1  0  0  0
 13 14  2  0  0  0
 14 15  1  0  0  0
 15 16  2  0  0  0
 17 18  2  0  0  0
 17 19  1  0  0  0
 19 20  1  0  0  0
 19 21  1  0  0  0
 21 22  1  0  0  0
 22 23  2  0  0  0
 22 24  1  0  0  0
 24 25  1  0  0  0
M  END
>  <CHROM.0>
166.08876603,66.49063558,-60.23848380,-157.28621571,64.58417111,-39.82150919
-40.69067528,-126.29352202,-149.60079733,59.45860078,-60.88002366,167.53614451
-173.49860448,-56.52731583,-178.45121946,-118.49332141

>  <CHROM.1>
111.52120519,-103.10805056,-66.40543379,-82.87504836,-109.66761129,175.66996860
19.66400801,29.71631514,68.34084537,2.48928705,-0.30050103,-0.94763085

>  <FORMUL>
      TOL    C16 H14 F3 N1 O3 S1

>  <HET>
 TOL  A 320      24

>  <HETNAM>
     TOL TOLRESTAT

>  <Name>
TOL.pdb

>  <RI>
2.51149e+07

>  <Rbt.Current_Directory>
/home/malgorzata/Desktop/rDOCK_IFD/Wyniki/1_aldose_reductase/IFD

>  <Rbt.Executable>
rbdock ($Id: //depot/dev/client3/rdock/2013.1/src/exe/rbdock.cxx#4 $)

>  <Rbt.Library>
libRbt.so (2013.1, Build901 2013/11/27)

>  <Rbt.Parameter_File>
/home/malgorzata/Desktop/rDock_2013.1_src/data/scripts/dock.prm

>  <Rbt.Receptor>
cavity.prm

>  <SCORE>
-38.9125

>  <SCORE.INTER>
-17.3985

>  <SCORE.INTER.CONST>
1

>  <SCORE.INTER.POLAR>
-3.46489

>  <SCORE.INTER.REPUL>
0

>  <SCORE.INTER.ROT>
5

>  <SCORE.INTER.VDW>
-16.0179

>  <SCORE.INTER.norm>
-0.724939

>  <SCORE.INTRA>
-5.47565

>  <SCORE.INTRA.DIHEDRAL>
2.91921

>  <SCORE.INTRA.DIHEDRAL.0>
16.9783

>  <SCORE.INTRA.POLAR>
0

>  <SCORE.INTRA.POLAR.0>
0

>  <SCORE.INTRA.REPUL>
0

>  <SCORE.INTRA.REPUL.0>
0

>  <SCORE.INTRA.VDW>
-6.93525

>  <SCORE.INTRA.VDW.0>
4.87734

>  <SCORE.INTRA.norm>
-0.228152

>  <SCORE.RESTR>
0

>  <SCORE.RESTR.CAVITY>
0

>  <SCORE.RESTR.norm>
0

>  <SCORE.SYSTEM>
-16.0383

>  <SCORE.SYSTEM.CONST>
0

>  <SCORE.SYSTEM.DIHEDRAL>
7.02543

>  <SCORE.SYSTEM.POLAR>
-4.92588

>  <SCORE.SYSTEM.REPUL>
0.279801

>  <SCORE.SYSTEM.VDW>
-4.20203

>  <SCORE.SYSTEM.norm>
-0.668263

>  <SCORE.heavy>
24

>  <SCORE.norm>
-1.62135

$$$$
TOL.pdb
  rDOCK(R)          3D
libRbt.so/2013.1/901 2013/11/27
 25 26  0  0  0  0  0  0  0  0999 V2000
   22.7193   28.1941   70.2132 C   0  0  0  0  0  0
   22.6872   28.2155   71.5695 F   0  0  0  0  0  0
   23.6343   29.1217   69.8251 F   0  0  0  0  0  0
   23.1861   26.9785   69.8219 F   0  0  0  0  0  0
   21.3251   28.4655   69.6075 C   0  0  0  0  0  0
   20.1546   28.6765   70.3818 C   0  0  0  0  0  0
   20.2282   28.6454   71.7001 O   0  0  0  0  0  0
   19.6060   29.7615   72.3150 C   0  0  0  0  0  0
   18.9257   28.9134   69.7278 C   0  0  0  0  0  0
   18.8514   28.9428   68.3306 C   0  0  0  0  0  0
   20.0108   28.7314   67.5585 C   0  0  0  0  0  0
   19.9222   28.7622   66.1471 C   0  0  0  0  0  0
   21.0786   28.5525   65.3780 C   0  0  0  0  0  0
   22.3069   28.3138   65.9987 C   0  0  0  0  0  0
   22.3897   28.2850   67.3964 C   0  0  0  0  0  0
   21.2462   28.4927   68.1899 C   0  0  0  0  0  0
   18.6372   29.0134   65.3936 C   0  0  0  0  0  0
   17.6872   27.6830   64.8802 S   0  0  0  0  0  0
   18.2509   30.2667   65.1503 N   0  0  0  0  0  0
   19.0217   31.3810   65.6908 C   0  0  0  0  0  0
   17.0557   30.5609   64.3661 C   0  0  0  0  0  0
   15.7722   30.3342   65.1832 C   0  0  0  0  0  0
   14.9547   29.5062   64.8782 O   0  0  0  0  0  0
   15.6320   31.1160   66.2596 O   0  0  0  0  0  0
   16.2359   31.8160   66.4121 H   0  0  0  0  0  0
  1  2  1  0  0  0
  1  3  1  0  0  0
  1  4  1  0  0  0
  1  5  1  0  0  0
  5  6  2  0  0  0
  5 16  1  0  0  0
  6  7  1  0  0  0
  6  9  1  0  0  0
  7  8  1  0  0  0
  9 10  2  0  0  0
 10 11  1  0  0  0
 11 12  2  0  0  0
 11 16  1  0  0  0
 12 13  1  0  0  0
 12 17  1  0  0  0
 13 14  2  0  0  0
 14 15  1  0  0  0
 15 16  2  0  0  0
 17 18  2  0  0  0
 17 19  1  0  0  0
 19 20  1  0  0  0
 19 21  1  0  0  0
 21 22  1  0  0  0
 22 23  2  0  0  0
 22 24  1  0  0  0
 24 25  1  0  0  0
M  END
>  <CHROM.0>
168.67842943,-47.00400865,-62.38714237,-19.69730416,57.28922595,-46.85115289
-176.92046229,-120.76294041,-151.16133606,-57.54785439,-59.44674540,167.96192952
-173.82530770,-55.87911481,-178.20281029,101.76773989

>  <CHROM.1>
-1.47812683,130.76906531,-93.48188046,76.34478913,-117.05050749,7.46198611
19.75650470,28.97445391,67.71731612,-0.75017552,0.33662828,-1.66036209

>  <FORMUL>
      TOL    C16 H14 F3 N1 O3 S1

>  <HET>
 TOL  A 320      24

>  <HETNAM>
     TOL TOLRESTAT

>  <Name>
TOL.pdb

>  <RI>
2.51149e+07

>  <Rbt.Current_Directory>
/home/malgorzata/Desktop/rDOCK_IFD/Wyniki/1_aldose_reductase/IFD

>  <Rbt.Executable>
rbdock ($Id: //depot/dev/client3/rdock/2013.1/src/exe/rbdock.cxx#4 $)

>  <Rbt.Library>
libRbt.so (2013.1, Build901 2013/11/27)

>  <Rbt.Parameter_File>
/home/malgorzata/Desktop/rDock_2013.1_src/data/scripts/dock.prm

>  <Rbt.Receptor>
cavity.prm

>  <SCORE>
-30.7316

>  <SCORE.INTER>
-9.66282

>  <SCORE.INTER.CONST>
1

>  <SCORE.INTER.POLAR>
-1.59287

>  <SCORE.INTER.REPUL>
0

>  <SCORE.INTER.ROT>
5

>  <SCORE.INTER.VDW>
-14.6471

>  <SCORE.INTER.norm>
-0.402618

>  <SCORE.INTRA>
-3.92831

>  <SCORE.INTRA.DIHEDRAL>
3.39597

>  <SCORE.INTRA.DIHEDRAL.0>
16.9783

>  <SCORE.INTRA.POLAR>
0

>  <SCORE.INTRA.POLAR.0>
0

>  <SCORE.INTRA.REPUL>
0

>  <SCORE.INTRA.REPUL.0>
0

>  <SCORE.INTRA.VDW>
-5.62629

>  <SCORE.INTRA.VDW.0>
4.87734

>  <SCORE.INTRA.norm>
-0.16368

>  <SCORE.RESTR>
0

>  <SCORE.RESTR.CAVITY>
0

>  <SCORE.RESTR.norm>
0

>  <SCORE.SYSTEM>
-17.1404

>  <SCORE.SYSTEM.CONST>
0

>  <SCORE.SYSTEM.DIHEDRAL>
4.25698

>  <SCORE.SYSTEM.POLAR>
-4.90894

>  <SCORE.SYSTEM.REPUL>
0.125315

>  <SCORE.SYSTEM.VDW>
-3.20511

>  <SCORE.SYSTEM.norm>
-0.714185

>  <SCORE.heavy>
24

>  <SCORE.norm>
-1.28048

$$$$
TOL.pdb
  rDOCK(R)          3D
libRbt.so/2013.1/901 2013/11/27
 25 26  0  0  0  0  0  0  0  0999 V2000
   20.2097   29.8528   71.5121 C   0  0  0  0  0  0
   21.3213   30.2640   72.1725 F   0  0  0  0  0  0
   20.0690   28.5244   71.7644 F   0  0  0  0  0  0
   19.1368   30.4834   72.0599 F   0  0  0  0  0  0
   20.3049   30.1493   69.9997 C   0  0  0  0  0  0
   21.4045   30.8088   69.3914 C   0  0  0  0  0  0
   22.4221   31.2047   70.1346 O   0  0  0  0  0  0
   23.4322   30.2174   70.2601 C   0  0  0  0  0  0
   21.3911   31.0348   67.9976 C   0  0  0  0  0  0
   20.3097   30.6161   67.2141 C   0  0  0  0  0  0
   19.2152   29.9633   67.8147 C   0  0  0  0  0  0
   18.1276   29.5463   67.0120 C   0  0  0  0  0  0
   17.0373   28.8945   67.6112 C   0  0  0  0  0  0
   17.0233   28.6599   68.9880 C   0  0  0  0  0  0
   18.1027   29.0739   69.7785 C   0  0  0  0  0  0
   19.2075   29.7285   69.2027 C   0  0  0  0  0  0
   18.0595   29.7583   65.5179 C   0  0  0  0  0  0
   17.0261   30.9695   64.8845 S   0  0  0  0  0  0
   18.8147   29.0106   64.7117 N   0  0  0  0  0  0
   19.7641   28.0610   65.2818 C   0  0  0  0  0  0
   18.7329   29.1281   63.2593 C   0  0  0  0  0  0
   19.4136   30.4124   62.7557 C   0  0  0  0  0  0
   18.7973   31.3028   62.2319 O   0  0  0  0  0  0
   20.7361   30.4736   62.9473 O   0  0  0  0  0  0
   21.1973   31.2719   62.7802 H   0  0  0  0  0  0
  1  2  1  0  0  0
  1  3  1  0  0  0
  1  4  1  0  0  0
  1  5  1  0  0  0
  5  6  2  0  0  0
  5 16  1  0  0  0
  6  7  1  0  0  0
  6  9  1  0  0  0
  7  8  1  0  0  0
  9 10  2  0  0  0
 10 11  1  0  0  0
 11 12  2  0  0  0
 11 16  1  0  0  0
 12 13  1  0  0  0
 12 17  1  0  0  0
 13 14  2  0  0  0
 14 15  1  0  0  0
 15 16  2  0  0  0
 17 18  2  0  0  0
 17 19  1  0  0  0
 19 20  1  0  0  0
 19 21  1  0  0  0
 21 22  1  0  0  0
 22 23  2  0  0  0
 22 24  1  0  0  0
 24 25  1  0  0  0
M  END
>  <CHROM.0>
171.06583358,-68.82998422,-61.00931717,178.10678190,-65.44460966,77.15926290
-38.72159910,-109.21108720,-148.53827165,62.19177865,-62.13268516,167.49204675
64.08057111,-56.17406778,-60.89855925,153.39863916

>  <CHROM.1>
-1.86031024,89.81220868,-105.38520456,74.40998640,-114.43385366,-171.17959260
19.53050923,29.98457422,67.65161518,1.29626044,0.27571850,1.67172923

>  <FORMUL>
      TOL    C16 H14 F3 N1 O3 S1

>  <HET>
 TOL  A 320      24

>  <HETNAM>
     TOL TOLRESTAT

>  <Name>
TOL.pdb

>  <RI>
2.51149e+07

>  <Rbt.Current_Directory>
/home/malgorzata/Desktop/rDOCK_IFD/Wyniki/1_aldose_reductase/IFD

>  <Rbt.Executable>
rbdock ($Id: //depot/dev/client3/rdock/2013.1/src/exe/rbdock.cxx#4 $)

>  <Rbt.Library>
libRbt.so (2013.1, Build901 2013/11/27)

>  <Rbt.Parameter_File>
/home/malgorzata/Desktop/rDock_2013.1_src/data/scripts/dock.prm

>  <Rbt.Receptor>
cavity.prm

>  <SCORE>
-31.6534

>  <SCORE.INTER>
-13.2422

>  <SCORE.INTER.CONST>
1

>  <SCORE.INTER.POLAR>
-2.09154

>  <SCORE.INTER.REPUL>
0.120535

>  <SCORE.INTER.ROT>
5

>  <SCORE.INTER.VDW>
-17.1336

>  <SCORE.INTER.norm>
-0.551756

>  <SCORE.INTRA>
-4.84225

>  <SCORE.INTRA.DIHEDRAL>
4.70065

>  <SCORE.INTRA.DIHEDRAL.0>
16.9783

>  <SCORE.INTRA.POLAR>
0

>  <SCORE.INTRA.POLAR.0>
0

>  <SCORE.INTRA.REPUL>
0

>  <SCORE.INTRA.REPUL.0>
0

>  <SCORE.INTRA.VDW>
-7.19257

>  <SCORE.INTRA.VDW.0>
4.87734

>  <SCORE.INTRA.norm>
-0.20176

>  <SCORE.RESTR>
0

>  <SCORE.RESTR.CAVITY>
0

>  <SCORE.RESTR.norm>
0

>  <SCORE.SYSTEM>
-13.569

>  <SCORE.SYSTEM.CONST>
0

>  <SCORE.SYSTEM.DIHEDRAL>
5.43789

>  <SCORE.SYSTEM.POLAR>
-4.24091

>  <SCORE.SYSTEM.REPUL>
0.373587

>  <SCORE.SYSTEM.VDW>
-3.73676

>  <SCORE.SYSTEM.norm>
-0.565374

>  <SCORE.heavy>
24

>  <SCORE.norm>
-1.31889

$$$$
