TOL.pdb
  rDOCK(R)          3D
libRbt.so/2013.1/901 2013/11/27
 25 26  0  0  0  0  0  0  0  0999 V2000
   15.1042   31.4094   64.7744 C   0  0  0  0  0  0
   14.5360   31.1155   63.5780 F   0  0  0  0  0  0
   15.8270   32.5475   64.5996 F   0  0  0  0  0  0
   14.1083   31.6952   65.6549 F   0  0  0  0  0  0
   15.9741   30.2435   65.2922 C   0  0  0  0  0  0
   16.2031   29.0456   64.5664 C   0  0  0  0  0  0
   15.6546   28.8876   63.3754 O   0  0  0  0  0  0
   16.5770   29.0679   62.3136 C   0  0  0  0  0  0
   17.0134   28.0373   65.1330 C   0  0  0  0  0  0
   17.5905   28.2075   66.3965 C   0  0  0  0  0  0
   17.3635   29.3942   67.1211 C   0  0  0  0  0  0
   17.9514   29.5533   68.3978 C   0  0  0  0  0  0
   17.7256   30.7372   69.1191 C   0  0  0  0  0  0
   16.9266   31.7500   68.5836 C   0  0  0  0  0  0
   16.3474   31.5881   67.3189 C   0  0  0  0  0  0
   16.5583   30.4120   66.5755 C   0  0  0  0  0  0
   18.8281   28.5116   69.0521 C   0  0  0  0  0  0
   18.2153   27.5992   70.3667 S   0  0  0  0  0  0
   20.0621   28.3049   68.5897 N   0  0  0  0  0  0
   20.5209   29.0187   67.4032 C   0  0  0  0  0  0
   20.9719   27.3611   69.2311 C   0  0  0  0  0  0
   21.6093   27.9596   70.4967 C   0  0  0  0  0  0
   21.0903   28.8496   71.1176 O   0  0  0  0  0  0
   22.7761   27.4173   70.8626 O   0  0  0  0  0  0
   23.1331   26.7010   70.3753 H   0  0  0  0  0  0
  1  2  1  0  0  0
  1  3  1  0  0  0
  1  4  1  0  0  0
  1  5  1  0  0  0
  5  6  2  0  0  0
  5 16  1  0  0  0
  6  7  1  0  0  0
  6  9  1  0  0  0
  7  8  1  0  0  0
  9 10  2  0  0  0
 10 11  1  0  0  0
 11 12  2  0  0  0
 11 16  1  0  0  0
 12 13  1  0  0  0
 12 17  1  0  0  0
 13 14  2  0  0  0
 14 15  1  0  0  0
 15 16  2  0  0  0
 17 18  2  0  0  0
 17 19  1  0  0  0
 19 20  1  0  0  0
 19 21  1  0  0  0
 21 22  1  0  0  0
 22 23  2  0  0  0
 22 24  1  0  0  0
 24 25  1  0  0  0
M  END
>  <CHROM.0>
177.56194173,49.51687098,-93.50671565,63.80737383,174.93178536,-163.97931079
-63.68459796,-83.36794479,-166.19318772,-67.19365352,175.50642419,-57.48112968
62.43377932,61.97778235,-57.18900313,-92.47967871

>  <CHROM.1>
3.15168821,103.55655788,-106.93746546,-78.68323917,24.19178910,-2.21546839
17.70975335,29.48767922,67.16099827,2.65108754,0.76263877,-2.04728766

>  <FORMUL>
      TOL    C16 H14 F3 N1 O3 S1

>  <HET>
 TOL  A 320      24

>  <HETNAM>
     TOL TOLRESTAT

>  <Name>
TOL.pdb

>  <RI>
0

>  <Rbt.Current_Directory>
/home/malgorzata/Desktop/rDOCK_IFD/Wyniki/1b_aldose_reductase/IFD

>  <Rbt.Executable>
rbdock ($Id: //depot/dev/client3/rdock/2013.1/src/exe/rbdock.cxx#4 $)

>  <Rbt.Library>
libRbt.so (2013.1, Build901 2013/11/27)

>  <Rbt.Parameter_File>
/home/malgorzata/Desktop/rDock_2013.1_src/data/scripts/dock.prm

>  <Rbt.Receptor>
cavity.prm

>  <SCORE>
-40.0484

>  <SCORE.INTER>
-13.8036

>  <SCORE.INTER.CONST>
1

>  <SCORE.INTER.POLAR>
-1.84651

>  <SCORE.INTER.REPUL>
0

>  <SCORE.INTER.ROT>
5

>  <SCORE.INTER.VDW>
-17.9255

>  <SCORE.INTER.norm>
-0.575149

>  <SCORE.INTRA>
-4.98476

>  <SCORE.INTRA.DIHEDRAL>
3.67777

>  <SCORE.INTRA.DIHEDRAL.0>
16.9783

>  <SCORE.INTRA.POLAR>
0

>  <SCORE.INTRA.POLAR.0>
0

>  <SCORE.INTRA.REPUL>
0

>  <SCORE.INTRA.REPUL.0>
0

>  <SCORE.INTRA.VDW>
-6.82364

>  <SCORE.INTRA.VDW.0>
4.87734

>  <SCORE.INTRA.norm>
-0.207698

>  <SCORE.RESTR>
0

>  <SCORE.RESTR.CAVITY>
0

>  <SCORE.RESTR.norm>
0

>  <SCORE.SYSTEM>
-21.2601

>  <SCORE.SYSTEM.CONST>
0

>  <SCORE.SYSTEM.DIHEDRAL>
3.13952

>  <SCORE.SYSTEM.POLAR>
-5.83113

>  <SCORE.SYSTEM.VDW>
-3.004

>  <SCORE.SYSTEM.norm>
-0.885836

>  <SCORE.heavy>
24

>  <SCORE.norm>
-1.66868

$$$$
TOL.pdb
  rDOCK(R)          3D
libRbt.so/2013.1/901 2013/11/27
 25 26  0  0  0  0  0  0  0  0999 V2000
   32.6298   26.3433   76.3011 C   0  0  0  0  0  0
   32.8520   26.6009   74.9877 F   0  0  0  0  0  0
   33.3248   25.2152   76.6054 F   0  0  0  0  0  0
   33.1701   27.3582   77.0268 F   0  0  0  0  0  0
   31.1230   26.1959   76.6043 C   0  0  0  0  0  0
   30.4800   26.7893   77.7217 C   0  0  0  0  0  0
   31.1834   27.5164   78.5708 O   0  0  0  0  0  0
   30.8420   28.8923   78.5356 C   0  0  0  0  0  0
   29.0949   26.5891   77.9099 C   0  0  0  0  0  0
   28.3537   25.8158   77.0094 C   0  0  0  0  0  0
   28.9889   25.2230   75.9003 C   0  0  0  0  0  0
   28.2287   24.4425   74.9981 C   0  0  0  0  0  0
   28.8624   23.8528   73.8920 C   0  0  0  0  0  0
   30.2316   24.0325   73.6827 C   0  0  0  0  0  0
   30.9798   24.8068   74.5782 C   0  0  0  0  0  0
   30.3689   25.4090   75.6939 C   0  0  0  0  0  0
   26.7458   24.1963   75.1470 C   0  0  0  0  0  0
   26.1800   22.6044   75.4329 S   0  0  0  0  0  0
   25.8970   25.2223   75.0686 N   0  0  0  0  0  0
   26.4115   26.5804   74.9319 C   0  0  0  0  0  0
   24.4521   25.0274   75.1353 C   0  0  0  0  0  0
   24.0402   24.2761   76.4129 C   0  0  0  0  0  0
   23.0524   23.5916   76.4650 O   0  0  0  0  0  0
   24.8600   24.4306   77.4586 O   0  0  0  0  0  0
   24.7270   23.9259   78.2367 H   0  0  0  0  0  0
  1  2  1  0  0  0
  1  3  1  0  0  0
  1  4  1  0  0  0
  1  5  1  0  0  0
  5  6  2  0  0  0
  5 16  1  0  0  0
  6  7  1  0  0  0
  6  9  1  0  0  0
  7  8  1  0  0  0
  9 10  2  0  0  0
 10 11  1  0  0  0
 11 12  2  0  0  0
 11 16  1  0  0  0
 12 13  1  0  0  0
 12 17  1  0  0  0
 13 14  2  0  0  0
 14 15  1  0  0  0
 15 16  2  0  0  0
 17 18  2  0  0  0
 17 19  1  0  0  0
 19 20  1  0  0  0
 19 21  1  0  0  0
 21 22  1  0  0  0
 22 23  2  0  0  0
 22 24  1  0  0  0
 24 25  1  0  0  0
M  END
>  <CHROM.0>
176.79469585,170.27794912,49.33063271,48.06856519,175.08568348,1.65639460
-178.86832136,-170.26181959,-150.12361804,174.82494894,-165.36604152,168.08790512
63.96087921,-55.43909234,167.71041445,120.74217041

>  <CHROM.1>
-135.62694354,112.19158427,-115.40925779,55.60068454,-152.03535862,-172.92962707
28.81813780,25.36830954,76.10042773,-0.32092573,-0.18602522,-2.30582759

>  <FORMUL>
      TOL    C16 H14 F3 N1 O3 S1

>  <HET>
 TOL  A 320      24

>  <HETNAM>
     TOL TOLRESTAT

>  <Name>
TOL.pdb

>  <RI>
0

>  <Rbt.Current_Directory>
/home/malgorzata/Desktop/rDOCK_IFD/Wyniki/1b_aldose_reductase/IFD

>  <Rbt.Executable>
rbdock ($Id: //depot/dev/client3/rdock/2013.1/src/exe/rbdock.cxx#4 $)

>  <Rbt.Library>
libRbt.so (2013.1, Build901 2013/11/27)

>  <Rbt.Parameter_File>
/home/malgorzata/Desktop/rDock_2013.1_src/data/scripts/dock.prm

>  <Rbt.Receptor>
cavity.prm

>  <SCORE>
-31.5558

>  <SCORE.INTER>
-12.424

>  <SCORE.INTER.CONST>
1

>  <SCORE.INTER.POLAR>
-2.06482

>  <SCORE.INTER.REPUL>
0

>  <SCORE.INTER.ROT>
5

>  <SCORE.INTER.VDW>
-15.8036

>  <SCORE.INTER.norm>
-0.517667

>  <SCORE.INTRA>
-3.15955

>  <SCORE.INTRA.DIHEDRAL>
2.32061

>  <SCORE.INTRA.DIHEDRAL.0>
16.9783

>  <SCORE.INTRA.POLAR>
0

>  <SCORE.INTRA.POLAR.0>
0

>  <SCORE.INTRA.REPUL>
0

>  <SCORE.INTRA.REPUL.0>
0

>  <SCORE.INTRA.VDW>
-4.31985

>  <SCORE.INTRA.VDW.0>
4.87734

>  <SCORE.INTRA.norm>
-0.131648

>  <SCORE.RESTR>
0.0117886

>  <SCORE.RESTR.CAVITY>
0.0117886

>  <SCORE.RESTR.norm>
0.000491192

>  <SCORE.SYSTEM>
-15.9841

>  <SCORE.SYSTEM.CONST>
0

>  <SCORE.SYSTEM.DIHEDRAL>
5.04608

>  <SCORE.SYSTEM.POLAR>
-6.03397

>  <SCORE.SYSTEM.REPUL>
0.981175

>  <SCORE.SYSTEM.VDW>
-2.89748

>  <SCORE.SYSTEM.norm>
-0.666002

>  <SCORE.heavy>
24

>  <SCORE.norm>
-1.31483

$$$$
TOL.pdb
  rDOCK(R)          3D
libRbt.so/2013.1/901 2013/11/27
 25 26  0  0  0  0  0  0  0  0999 V2000
   20.1050   28.6017   68.5704 C   0  0  0  0  0  0
   20.7099   29.1823   69.6371 F   0  0  0  0  0  0
   21.0706   28.3851   67.6383 F   0  0  0  0  0  0
   19.6403   27.3848   68.9603 F   0  0  0  0  0  0
   18.9561   29.4763   68.0232 C   0  0  0  0  0  0
   18.4763   30.6454   68.6690 C   0  0  0  0  0  0
   19.0233   31.0354   69.8061 O   0  0  0  0  0  0
   18.3892   30.4769   70.9450 C   0  0  0  0  0  0
   17.4162   31.3729   68.0852 C   0  0  0  0  0  0
   16.8375   30.9547   66.8816 C   0  0  0  0  0  0
   17.3094   29.7933   66.2387 C   0  0  0  0  0  0
   16.7150   29.3804   65.0233 C   0  0  0  0  0  0
   17.1867   28.2231   64.3823 C   0  0  0  0  0  0
   18.2327   27.4831   64.9386 C   0  0  0  0  0  0
   18.8184   27.8964   66.1417 C   0  0  0  0  0  0
   18.3648   29.0525   66.8036 C   0  0  0  0  0  0
   15.5816   30.1192   64.3515 C   0  0  0  0  0  0
   13.9743   29.8648   64.8880 S   0  0  0  0  0  0
   15.8470   30.9707   63.3596 N   0  0  0  0  0  0
   17.2315   31.2495   62.9942 C   0  0  0  0  0  0
   14.7825   31.6547   62.6324 C   0  0  0  0  0  0
   14.0920   32.7167   63.5052 C   0  0  0  0  0  0
   14.5832   33.1300   64.5225 O   0  0  0  0  0  0
   12.9120   33.1535   63.0511 O   0  0  0  0  0  0
   12.6066   32.8853   62.2068 H   0  0  0  0  0  0
  1  2  1  0  0  0
  1  3  1  0  0  0
  1  4  1  0  0  0
  1  5  1  0  0  0
  5  6  2  0  0  0
  5 16  1  0  0  0
  6  7  1  0  0  0
  6  9  1  0  0  0
  7  8  1  0  0  0
  9 10  2  0  0  0
 10 11  1  0  0  0
 11 12  2  0  0  0
 11 16  1  0  0  0
 12 13  1  0  0  0
 12 17  1  0  0  0
 13 14  2  0  0  0
 14 15  1  0  0  0
 15 16  2  0  0  0
 17 18  2  0  0  0
 17 19  1  0  0  0
 19 20  1  0  0  0
 19 21  1  0  0  0
 21 22  1  0  0  0
 22 23  2  0  0  0
 22 24  1  0  0  0
 24 25  1  0  0  0
M  END
>  <CHROM.0>
176.47675023,52.72624977,44.77503163,50.82010769,175.13736973,10.67678093
-178.02352691,-114.89597663,-161.05096679,-66.12884505,173.24952584,-59.43146854
62.74710055,61.88120243,169.07351458,-56.65301597

>  <CHROM.1>
-8.17685241,-89.93907644,-81.71238024,70.53966008,16.26660030,-6.82112666
17.25366279,30.07549765,66.26821200,-0.36676106,0.77429462,-2.17868492

>  <FORMUL>
      TOL    C16 H14 F3 N1 O3 S1

>  <HET>
 TOL  A 320      24

>  <HETNAM>
     TOL TOLRESTAT

>  <Name>
TOL.pdb

>  <RI>
0

>  <Rbt.Current_Directory>
/home/malgorzata/Desktop/rDOCK_IFD/Wyniki/1b_aldose_reductase/IFD

>  <Rbt.Executable>
rbdock ($Id: //depot/dev/client3/rdock/2013.1/src/exe/rbdock.cxx#4 $)

>  <Rbt.Library>
libRbt.so (2013.1, Build901 2013/11/27)

>  <Rbt.Parameter_File>
/home/malgorzata/Desktop/rDock_2013.1_src/data/scripts/dock.prm

>  <Rbt.Receptor>
cavity.prm

>  <SCORE>
-41.2623

>  <SCORE.INTER>
-14.0835

>  <SCORE.INTER.CONST>
1

>  <SCORE.INTER.POLAR>
-1.67591

>  <SCORE.INTER.REPUL>
0

>  <SCORE.INTER.ROT>
5

>  <SCORE.INTER.VDW>
-18.7854

>  <SCORE.INTER.norm>
-0.586814

>  <SCORE.INTRA>
-4.65375

>  <SCORE.INTRA.DIHEDRAL>
5.20185

>  <SCORE.INTRA.DIHEDRAL.0>
16.9783

>  <SCORE.INTRA.POLAR>
0

>  <SCORE.INTRA.POLAR.0>
0

>  <SCORE.INTRA.REPUL>
0

>  <SCORE.INTRA.REPUL.0>
0

>  <SCORE.INTRA.VDW>
-7.25468

>  <SCORE.INTRA.VDW.0>
4.87734

>  <SCORE.INTRA.norm>
-0.193906

>  <SCORE.RESTR>
0

>  <SCORE.RESTR.CAVITY>
0

>  <SCORE.RESTR.norm>
0

>  <SCORE.SYSTEM>
-22.525

>  <SCORE.SYSTEM.CONST>
0

>  <SCORE.SYSTEM.DIHEDRAL>
3.46453

>  <SCORE.SYSTEM.POLAR>
-7.37538

>  <SCORE.SYSTEM.REPUL>
0.808216

>  <SCORE.SYSTEM.VDW>
-3.22204

>  <SCORE.SYSTEM.norm>
-0.938541

>  <SCORE.heavy>
24

>  <SCORE.norm>
-1.71926

$$$$
TOL.pdb
  rDOCK(R)          3D
libRbt.so/2013.1/901 2013/11/27
 25 26  0  0  0  0  0  0  0  0999 V2000
   23.5569   27.5404   71.7181 C   0  0  0  0  0  0
   24.7951   27.0378   71.4830 F   0  0  0  0  0  0
   22.7082   26.4810   71.7923 F   0  0  0  0  0  0
   23.5686   28.1345   72.9410 F   0  0  0  0  0  0
   23.1351   28.5463   70.6252 C   0  0  0  0  0  0
   23.3249   29.9491   70.7266 C   0  0  0  0  0  0
   23.8929   30.4557   71.8060 O   0  0  0  0  0  0
   22.9690   30.7014   72.8534 C   0  0  0  0  0  0
   22.8988   30.7833   69.6699 C   0  0  0  0  0  0
   22.2949   30.2427   68.5290 C   0  0  0  0  0  0
   22.1025   28.8508   68.4258 C   0  0  0  0  0  0
   21.4896   28.3171   67.2680 C   0  0  0  0  0  0
   21.2992   26.9293   67.1652 C   0  0  0  0  0  0
   21.7091   26.0810   68.1963 C   0  0  0  0  0  0
   22.3161   26.6142   69.3403 C   0  0  0  0  0  0
   22.5190   28.0009   69.4678 C   0  0  0  0  0  0
   21.0167   29.1591   66.1065 C   0  0  0  0  0  0
   22.1696   29.8958   65.0749 S   0  0  0  0  0  0
   19.7088   29.3068   65.8897 N   0  0  0  0  0  0
   18.7503   28.5828   66.7173 C   0  0  0  0  0  0
   19.2016   30.1663   64.8248 C   0  0  0  0  0  0
   18.3400   29.3785   63.8231 C   0  0  0  0  0  0
   17.1427   29.3126   63.9188 O   0  0  0  0  0  0
   19.0132   28.7787   62.8350 O   0  0  0  0  0  0
   18.5529   28.2746   62.1931 H   0  0  0  0  0  0
  1  2  1  0  0  0
  1  3  1  0  0  0
  1  4  1  0  0  0
  1  5  1  0  0  0
  5  6  2  0  0  0
  5 16  1  0  0  0
  6  7  1  0  0  0
  6  9  1  0  0  0
  7  8  1  0  0  0
  9 10  2  0  0  0
 10 11  1  0  0  0
 11 12  2  0  0  0
 11 16  1  0  0  0
 12 13  1  0  0  0
 12 17  1  0  0  0
 13 14  2  0  0  0
 14 15  1  0  0  0
 15 16  2  0  0  0
 17 18  2  0  0  0
 17 19  1  0  0  0
 19 20  1  0  0  0
 19 21  1  0  0  0
 21 22  1  0  0  0
 22 23  2  0  0  0
 22 24  1  0  0  0
 24 25  1  0  0  0
M  END
>  <CHROM.0>
160.57009145,53.87682984,117.90482868,165.99638865,-66.89491294,-177.96875879
-61.55296915,104.98428048,-151.61482682,-66.02170027,-166.56301772,58.31260313
-171.45893107,60.92124851,168.27987938,-104.24365370

>  <CHROM.1>
-93.82543598,-85.97994511,71.16320805,120.78773915,94.30512344,179.41496610
21.71462165,28.74082589,68.31548765,0.30195062,1.01791114,2.90353664

>  <FORMUL>
      TOL    C16 H14 F3 N1 O3 S1

>  <HET>
 TOL  A 320      24

>  <HETNAM>
     TOL TOLRESTAT

>  <Name>
TOL.pdb

>  <RI>
0

>  <Rbt.Current_Directory>
/home/malgorzata/Desktop/rDOCK_IFD/Wyniki/1b_aldose_reductase/IFD

>  <Rbt.Executable>
rbdock ($Id: //depot/dev/client3/rdock/2013.1/src/exe/rbdock.cxx#4 $)

>  <Rbt.Library>
libRbt.so (2013.1, Build901 2013/11/27)

>  <Rbt.Parameter_File>
/home/malgorzata/Desktop/rDock_2013.1_src/data/scripts/dock.prm

>  <Rbt.Receptor>
cavity.prm

>  <SCORE>
-40.5406

>  <SCORE.INTER>
-11.1888

>  <SCORE.INTER.CONST>
1

>  <SCORE.INTER.POLAR>
-0.543884

>  <SCORE.INTER.REPUL>
0.0208029

>  <SCORE.INTER.ROT>
5

>  <SCORE.INTER.VDW>
-19.8436

>  <SCORE.INTER.norm>
-0.4662

>  <SCORE.INTRA>
-1.47237

>  <SCORE.INTRA.DIHEDRAL>
3.67999

>  <SCORE.INTRA.DIHEDRAL.0>
16.9783

>  <SCORE.INTRA.POLAR>
0

>  <SCORE.INTRA.POLAR.0>
0

>  <SCORE.INTRA.REPUL>
0

>  <SCORE.INTRA.REPUL.0>
0

>  <SCORE.INTRA.VDW>
-3.31236

>  <SCORE.INTRA.VDW.0>
4.87734

>  <SCORE.INTRA.norm>
-0.0613486

>  <SCORE.RESTR>
0

>  <SCORE.RESTR.CAVITY>
0

>  <SCORE.RESTR.norm>
0

>  <SCORE.SYSTEM>
-27.8794

>  <SCORE.SYSTEM.CONST>
0

>  <SCORE.SYSTEM.DIHEDRAL>
5.02178

>  <SCORE.SYSTEM.POLAR>
-7.74127

>  <SCORE.SYSTEM.REPUL>
0.10441

>  <SCORE.SYSTEM.VDW>
-4.59204

>  <SCORE.SYSTEM.norm>
-1.16164

>  <SCORE.heavy>
24

>  <SCORE.norm>
-1.68919

$$$$
TOL.pdb
  rDOCK(R)          3D
libRbt.so/2013.1/901 2013/11/27
 25 26  0  0  0  0  0  0  0  0999 V2000
   18.0681   31.1421   69.5173 C   0  0  0  0  0  0
   17.3863   30.1342   70.1173 F   0  0  0  0  0  0
   17.2744   32.2444   69.5740 F   0  0  0  0  0  0
   19.1753   31.4035   70.2619 F   0  0  0  0  0  0
   18.4568   30.7810   68.0672 C   0  0  0  0  0  0
   19.7692   30.4171   67.6682 C   0  0  0  0  0  0
   20.7374   30.3752   68.5654 O   0  0  0  0  0  0
   21.0034   29.0623   69.0309 C   0  0  0  0  0  0
   20.0199   30.1083   66.3132 C   0  0  0  0  0  0
   18.9917   30.1566   65.3651 C   0  0  0  0  0  0
   17.6881   30.5198   65.7569 C   0  0  0  0  0  0
   16.6579   30.5662   64.7886 C   0  0  0  0  0  0
   15.3583   30.9272   65.1802 C   0  0  0  0  0  0
   15.0825   31.2397   66.5133 C   0  0  0  0  0  0
   16.1056   31.1916   67.4684 C   0  0  0  0  0  0
   17.4161   30.8323   67.1023 C   0  0  0  0  0  0
   16.8663   30.2441   63.3276 C   0  0  0  0  0  0
   17.4006   31.4741   62.2610 S   0  0  0  0  0  0
   16.6461   29.0037   62.8889 N   0  0  0  0  0  0
   16.2957   27.9511   63.8361 C   0  0  0  0  0  0
   16.7648   28.6591   61.4757 C   0  0  0  0  0  0
   17.0262   27.1560   61.2792 C   0  0  0  0  0  0
   16.1549   26.3885   60.9649 O   0  0  0  0  0  0
   18.2899   26.7632   61.4748 O   0  0  0  0  0  0
   18.5216   25.8614   61.3704 H   0  0  0  0  0  0
  1  2  1  0  0  0
  1  3  1  0  0  0
  1  4  1  0  0  0
  1  5  1  0  0  0
  5  6  2  0  0  0
  5 16  1  0  0  0
  6  7  1  0  0  0
  6  9  1  0  0  0
  7  8  1  0  0  0
  9 10  2  0  0  0
 10 11  1  0  0  0
 11 12  2  0  0  0
 11 16  1  0  0  0
 12 13  1  0  0  0
 12 17  1  0  0  0
 13 14  2  0  0  0
 14 15  1  0  0  0
 15 16  2  0  0  0
 17 18  2  0  0  0
 17 19  1  0  0  0
 19 20  1  0  0  0
 19 21  1  0  0  0
 21 22  1  0  0  0
 22 23  2  0  0  0
 22 24  1  0  0  0
 24 25  1  0  0  0
M  END
>  <CHROM.0>
169.79595597,-66.89567067,46.29648298,48.18023639,174.94144132,-167.03566596
-177.64919720,-91.00330775,-173.78421962,172.77793118,53.88422686,-62.09152095
63.59572589,-53.99537926,172.49231993,126.18053705

>  <CHROM.1>
-104.52127299,99.02189789,-86.02154408,157.14057503,100.86545944,-179.87027743
17.71423166,30.00222564,65.72476306,1.30742444,-0.57953955,1.09267328

>  <FORMUL>
      TOL    C16 H14 F3 N1 O3 S1

>  <HET>
 TOL  A 320      24

>  <HETNAM>
     TOL TOLRESTAT

>  <Name>
TOL.pdb

>  <RI>
0

>  <Rbt.Current_Directory>
/home/malgorzata/Desktop/rDOCK_IFD/Wyniki/1b_aldose_reductase/IFD

>  <Rbt.Executable>
rbdock ($Id: //depot/dev/client3/rdock/2013.1/src/exe/rbdock.cxx#4 $)

>  <Rbt.Library>
libRbt.so (2013.1, Build901 2013/11/27)

>  <Rbt.Parameter_File>
/home/malgorzata/Desktop/rDock_2013.1_src/data/scripts/dock.prm

>  <Rbt.Receptor>
cavity.prm

>  <SCORE>
-35.6219

>  <SCORE.INTER>
-15.3275

>  <SCORE.INTER.CONST>
1

>  <SCORE.INTER.POLAR>
-2.12743

>  <SCORE.INTER.REPUL>
0

>  <SCORE.INTER.ROT>
5

>  <SCORE.INTER.VDW>
-18.4942

>  <SCORE.INTER.norm>
-0.638646

>  <SCORE.INTRA>
-2.40431

>  <SCORE.INTRA.DIHEDRAL>
4.86134

>  <SCORE.INTRA.DIHEDRAL.0>
16.9783

>  <SCORE.INTRA.POLAR>
0

>  <SCORE.INTRA.POLAR.0>
0

>  <SCORE.INTRA.REPUL>
0

>  <SCORE.INTRA.REPUL.0>
0

>  <SCORE.INTRA.VDW>
-4.83497

>  <SCORE.INTRA.VDW.0>
4.87734

>  <SCORE.INTRA.norm>
-0.100179

>  <SCORE.RESTR>
0

>  <SCORE.RESTR.CAVITY>
0

>  <SCORE.RESTR.norm>
0

>  <SCORE.SYSTEM>
-17.8901

>  <SCORE.SYSTEM.CONST>
0

>  <SCORE.SYSTEM.DIHEDRAL>
3.87871

>  <SCORE.SYSTEM.POLAR>
-6.18657

>  <SCORE.SYSTEM.REPUL>
0.808216

>  <SCORE.SYSTEM.VDW>
-2.83618

>  <SCORE.SYSTEM.norm>
-0.745421

>  <SCORE.heavy>
24

>  <SCORE.norm>
-1.48425

$$$$
TOL.pdb
  rDOCK(R)          3D
libRbt.so/2013.1/901 2013/11/27
 25 26  0  0  0  0  0  0  0  0999 V2000
   19.7107   31.4552   71.1561 C   0  0  0  0  0  0
   20.8672   31.4637   71.8655 F   0  0  0  0  0  0
   18.8831   30.5621   71.7606 F   0  0  0  0  0  0
   19.1356   32.6817   71.2733 F   0  0  0  0  0  0
   19.9568   31.1061   69.6723 C   0  0  0  0  0  0
   21.2464   30.9626   69.0976 C   0  0  0  0  0  0
   22.3195   31.1310   69.8489 O   0  0  0  0  0  0
   22.8753   29.9073   70.3012 C   0  0  0  0  0  0
   21.3617   30.6447   67.7265 C   0  0  0  0  0  0
   20.2221   30.4698   66.9332 C   0  0  0  0  0  0
   18.9401   30.6138   67.4996 C   0  0  0  0  0  0
   17.7963   30.4359   66.6867 C   0  0  0  0  0  0
   16.5185   30.5784   67.2522 C   0  0  0  0  0  0
   16.3753   30.8946   68.6051 C   0  0  0  0  0  0
   17.5108   31.0691   69.4060 C   0  0  0  0  0  0
   18.8022   30.9313   68.8641 C   0  0  0  0  0  0
   17.8581   30.0928   65.2169 C   0  0  0  0  0  0
   18.7086   28.6932   64.7130 S   0  0  0  0  0  0
   17.2382   30.8747   64.3316 N   0  0  0  0  0  0
   16.4326   31.9986   64.7957 C   0  0  0  0  0  0
   17.3271   30.6260   62.8962 C   0  0  0  0  0  0
   16.5965   29.3317   62.4993 C   0  0  0  0  0  0
   16.9838   28.6235   61.6075 O   0  0  0  0  0  0
   15.5060   29.0449   63.2189 O   0  0  0  0  0  0
   15.2644   29.5907   63.9412 H   0  0  0  0  0  0
  1  2  1  0  0  0
  1  3  1  0  0  0
  1  4  1  0  0  0
  1  5  1  0  0  0
  5  6  2  0  0  0
  5 16  1  0  0  0
  6  7  1  0  0  0
  6  9  1  0  0  0
  7  8  1  0  0  0
  9 10  2  0  0  0
 10 11  1  0  0  0
 11 12  2  0  0  0
 11 16  1  0  0  0
 12 13  1  0  0  0
 12 17  1  0  0  0
 13 14  2  0  0  0
 14 15  1  0  0  0
 15 16  2  0  0  0
 17 18  2  0  0  0
 17 19  1  0  0  0
 19 20  1  0  0  0
 19 21  1  0  0  0
 21 22  1  0  0  0
 22 23  2  0  0  0
 22 24  1  0  0  0
 24 25  1  0  0  0
M  END
>  <CHROM.0>
176.02188021,52.61453596,45.48331493,49.72844625,174.04163516,-175.37501161
62.24150567,-169.46613150,-161.91024582,-65.73081725,-62.48395400,-59.10121085
-173.93307559,-56.00794653,171.84037128,92.50287910

>  <CHROM.1>
-6.63594966,98.71152405,56.24625801,68.16547888,-146.09699257,-3.52232107
18.73935241,30.51605761,67.35950425,1.12032316,-0.22634187,1.25104525

>  <FORMUL>
      TOL    C16 H14 F3 N1 O3 S1

>  <HET>
 TOL  A 320      24

>  <HETNAM>
     TOL TOLRESTAT

>  <Name>
TOL.pdb

>  <RI>
0

>  <Rbt.Current_Directory>
/home/malgorzata/Desktop/rDOCK_IFD/Wyniki/1b_aldose_reductase/IFD

>  <Rbt.Executable>
rbdock ($Id: //depot/dev/client3/rdock/2013.1/src/exe/rbdock.cxx#4 $)

>  <Rbt.Library>
libRbt.so (2013.1, Build901 2013/11/27)

>  <Rbt.Parameter_File>
/home/malgorzata/Desktop/rDock_2013.1_src/data/scripts/dock.prm

>  <Rbt.Receptor>
cavity.prm

>  <SCORE>
-44.0352

>  <SCORE.INTER>
-13.917

>  <SCORE.INTER.CONST>
1

>  <SCORE.INTER.POLAR>
-0.726149

>  <SCORE.INTER.REPUL>
0

>  <SCORE.INTER.ROT>
5

>  <SCORE.INTER.VDW>
-21.8481

>  <SCORE.INTER.norm>
-0.579874

>  <SCORE.INTRA>
-4.0125

>  <SCORE.INTRA.DIHEDRAL>
1.08265

>  <SCORE.INTRA.DIHEDRAL.0>
16.9783

>  <SCORE.INTRA.POLAR>
0

>  <SCORE.INTRA.POLAR.0>
0

>  <SCORE.INTRA.REPUL>
0

>  <SCORE.INTRA.REPUL.0>
0

>  <SCORE.INTRA.VDW>
-4.55383

>  <SCORE.INTRA.VDW.0>
4.87734

>  <SCORE.INTRA.norm>
-0.167188

>  <SCORE.RESTR>
0

>  <SCORE.RESTR.CAVITY>
0

>  <SCORE.RESTR.norm>
0

>  <SCORE.SYSTEM>
-26.1057

>  <SCORE.SYSTEM.CONST>
0

>  <SCORE.SYSTEM.DIHEDRAL>
3.31657

>  <SCORE.SYSTEM.POLAR>
-7.54379

>  <SCORE.SYSTEM.VDW>
-2.11507

>  <SCORE.SYSTEM.norm>
-1.08774

>  <SCORE.heavy>
24

>  <SCORE.norm>
-1.8348

$$$$
TOL.pdb
  rDOCK(R)          3D
libRbt.so/2013.1/901 2013/11/27
 25 26  0  0  0  0  0  0  0  0999 V2000
   16.8439   29.7950   62.4731 C   0  0  0  0  0  0
   16.8120   28.9208   61.4360 F   0  0  0  0  0  0
   17.7325   30.7690   62.1415 F   0  0  0  0  0  0
   15.6205   30.3805   62.5685 F   0  0  0  0  0  0
   17.2191   29.0934   63.7964 C   0  0  0  0  0  0
   17.6577   27.7463   63.8799 C   0  0  0  0  0  0
   17.7620   27.0232   62.7796 O   0  0  0  0  0  0
   16.7685   26.0159   62.6837 C   0  0  0  0  0  0
   17.9731   27.1981   65.1425 C   0  0  0  0  0  0
   17.8586   27.9668   66.3063 C   0  0  0  0  0  0
   17.4212   29.3038   66.2277 C   0  0  0  0  0  0
   17.3084   30.0697   67.4116 C   0  0  0  0  0  0
   16.8735   31.4029   67.3325 C   0  0  0  0  0  0
   16.5528   31.9699   66.0970 C   0  0  0  0  0  0
   16.6668   31.2077   64.9276 C   0  0  0  0  0  0
   17.1008   29.8701   64.9794 C   0  0  0  0  0  0
   17.6340   29.5382   68.7876 C   0  0  0  0  0  0
   16.4414   28.6706   69.6601 S   0  0  0  0  0  0
   18.8493   29.7378   69.3000 N   0  0  0  0  0  0
   19.8786   30.3852   68.4943 C   0  0  0  0  0  0
   19.1905   29.3062   70.6518 C   0  0  0  0  0  0
   19.6800   30.4816   71.5151 C   0  0  0  0  0  0
   19.0492   31.4992   71.6314 O   0  0  0  0  0  0
   20.8511   30.2909   72.1327 O   0  0  0  0  0  0
   21.3090   29.4801   72.0286 H   0  0  0  0  0  0
  1  2  1  0  0  0
  1  3  1  0  0  0
  1  4  1  0  0  0
  1  5  1  0  0  0
  5  6  2  0  0  0
  5 16  1  0  0  0
  6  7  1  0  0  0
  6  9  1  0  0  0
  7  8  1  0  0  0
  9 10  2  0  0  0
 10 11  1  0  0  0
 11 12  2  0  0  0
 11 16  1  0  0  0
 12 13  1  0  0  0
 12 17  1  0  0  0
 13 14  2  0  0  0
 14 15  1  0  0  0
 15 16  2  0  0  0
 17 18  2  0  0  0
 17 19  1  0  0  0
 19 20  1  0  0  0
 19 21  1  0  0  0
 21 22  1  0  0  0
 22 23  2  0  0  0
 22 24  1  0  0  0
 24 25  1  0  0  0
M  END
>  <CHROM.0>
179.64674157,174.46457547,47.82278470,53.33202529,53.38165824,-166.52368070
-63.21537985,101.18155090,-160.10353471,-65.23672211,171.11673767,-57.76893529
-177.12920290,-57.74014052,170.60021927,-117.04238576

>  <CHROM.1>
8.25944513,-109.02467880,-84.82542823,-122.61791353,52.39456540,-0.51669340
17.68299691,29.49380208,66.40399186,2.57911293,1.27718936,-2.71145063

>  <FORMUL>
      TOL    C16 H14 F3 N1 O3 S1

>  <HET>
 TOL  A 320      24

>  <HETNAM>
     TOL TOLRESTAT

>  <Name>
TOL.pdb

>  <RI>
0

>  <Rbt.Current_Directory>
/home/malgorzata/Desktop/rDOCK_IFD/Wyniki/1b_aldose_reductase/IFD

>  <Rbt.Executable>
rbdock ($Id: //depot/dev/client3/rdock/2013.1/src/exe/rbdock.cxx#4 $)

>  <Rbt.Library>
libRbt.so (2013.1, Build901 2013/11/27)

>  <Rbt.Parameter_File>
/home/malgorzata/Desktop/rDock_2013.1_src/data/scripts/dock.prm

>  <Rbt.Receptor>
cavity.prm

>  <SCORE>
-41.1816

>  <SCORE.INTER>
-13.7982

>  <SCORE.INTER.CONST>
1

>  <SCORE.INTER.POLAR>
-1.68362

>  <SCORE.INTER.REPUL>
0.00792795

>  <SCORE.INTER.ROT>
5

>  <SCORE.INTER.VDW>
-18.5135

>  <SCORE.INTER.norm>
-0.574924

>  <SCORE.INTRA>
-3.92446

>  <SCORE.INTRA.DIHEDRAL>
4.47541

>  <SCORE.INTRA.DIHEDRAL.0>
16.9783

>  <SCORE.INTRA.POLAR>
0

>  <SCORE.INTRA.POLAR.0>
0

>  <SCORE.INTRA.REPUL>
0

>  <SCORE.INTRA.REPUL.0>
0

>  <SCORE.INTRA.VDW>
-6.16216

>  <SCORE.INTRA.VDW.0>
4.87734

>  <SCORE.INTRA.norm>
-0.163519

>  <SCORE.RESTR>
0

>  <SCORE.RESTR.CAVITY>
0

>  <SCORE.RESTR.norm>
0

>  <SCORE.SYSTEM>
-23.4589

>  <SCORE.SYSTEM.CONST>
0

>  <SCORE.SYSTEM.DIHEDRAL>
3.24342

>  <SCORE.SYSTEM.POLAR>
-7.04612

>  <SCORE.SYSTEM.REPUL>
0.206213

>  <SCORE.SYSTEM.VDW>
-2.15491

>  <SCORE.SYSTEM.norm>
-0.977456

>  <SCORE.heavy>
24

>  <SCORE.norm>
-1.7159

$$$$
TOL.pdb
  rDOCK(R)          3D
libRbt.so/2013.1/901 2013/11/27
 25 26  0  0  0  0  0  0  0  0999 V2000
   19.2097   28.5896   69.9820 C   0  0  0  0  0  0
   18.3445   27.9714   70.8246 F   0  0  0  0  0  0
   19.4255   29.8353   70.4816 F   0  0  0  0  0  0
   20.3944   27.9241   70.0318 F   0  0  0  0  0  0
   18.6653   28.6300   68.5376 C   0  0  0  0  0  0
   19.2757   27.9623   67.4441 C   0  0  0  0  0  0
   20.3747   27.2565   67.6399 O   0  0  0  0  0  0
   21.5163   27.8283   67.0229 C   0  0  0  0  0  0
   18.6981   28.0668   66.1597 C   0  0  0  0  0  0
   17.5350   28.8179   65.9560 C   0  0  0  0  0  0
   16.9275   29.4841   67.0386 C   0  0  0  0  0  0
   15.7530   30.2413   66.8192 C   0  0  0  0  0  0
   15.1472   30.9042   67.8991 C   0  0  0  0  0  0
   15.6984   30.8198   69.1798 C   0  0  0  0  0  0
   16.8609   30.0683   69.3921 C   0  0  0  0  0  0
   17.4870   29.3941   68.3273 C   0  0  0  0  0  0
   15.0897   30.3865   65.4699 C   0  0  0  0  0  0
   13.9412   29.2193   64.9651 S   0  0  0  0  0  0
   15.3950   31.4284   64.6948 N   0  0  0  0  0  0
   16.2943   32.4634   65.1924 C   0  0  0  0  0  0
   14.8352   31.5759   63.3551 C   0  0  0  0  0  0
   15.8122   31.0802   62.2752 C   0  0  0  0  0  0
   16.5537   31.8247   61.6897 O   0  0  0  0  0  0
   15.7853   29.7640   62.0380 O   0  0  0  0  0  0
   16.3929   29.3843   61.4342 H   0  0  0  0  0  0
  1  2  1  0  0  0
  1  3  1  0  0  0
  1  4  1  0  0  0
  1  5  1  0  0  0
  5  6  2  0  0  0
  5 16  1  0  0  0
  6  7  1  0  0  0
  6  9  1  0  0  0
  7  8  1  0  0  0
  9 10  2  0  0  0
 10 11  1  0  0  0
 11 12  2  0  0  0
 11 16  1  0  0  0
 12 13  1  0  0  0
 12 17  1  0  0  0
 13 14  2  0  0  0
 14 15  1  0  0  0
 15 16  2  0  0  0
 17 18  2  0  0  0
 17 19  1  0  0  0
 19 20  1  0  0  0
 19 21  1  0  0  0
 21 22  1  0  0  0
 22 23  2  0  0  0
 22 24  1  0  0  0
 24 25  1  0  0  0
M  END
>  <CHROM.0>
-179.93463569,-62.68745835,118.97649155,167.27370086,172.08136383,-18.36966382
-61.53178557,-163.71543126,-171.77502402,-64.50911342,-63.68344515,-64.53942300
-171.90687880,63.45471707,172.02857076,-122.09511165

>  <CHROM.1>
-115.58508481,-111.92830017,87.20989920,-97.87191328,-95.57974311,-175.93928130
17.22990707,29.58923883,66.73863288,0.91034261,-0.48161879,1.61325617

>  <FORMUL>
      TOL    C16 H14 F3 N1 O3 S1

>  <HET>
 TOL  A 320      24

>  <HETNAM>
     TOL TOLRESTAT

>  <Name>
TOL.pdb

>  <RI>
0

>  <Rbt.Current_Directory>
/home/malgorzata/Desktop/rDOCK_IFD/Wyniki/1b_aldose_reductase/IFD

>  <Rbt.Executable>
rbdock ($Id: //depot/dev/client3/rdock/2013.1/src/exe/rbdock.cxx#4 $)

>  <Rbt.Library>
libRbt.so (2013.1, Build901 2013/11/27)

>  <Rbt.Parameter_File>
/home/malgorzata/Desktop/rDock_2013.1_src/data/scripts/dock.prm

>  <Rbt.Receptor>
cavity.prm

>  <SCORE>
-46.7085

>  <SCORE.INTER>
-13.7244

>  <SCORE.INTER.CONST>
1

>  <SCORE.INTER.POLAR>
-1.73249

>  <SCORE.INTER.REPUL>
0

>  <SCORE.INTER.ROT>
5

>  <SCORE.INTER.VDW>
-18.2339

>  <SCORE.INTER.norm>
-0.571849

>  <SCORE.INTRA>
-4.9124

>  <SCORE.INTRA.DIHEDRAL>
4.41207

>  <SCORE.INTRA.DIHEDRAL.0>
16.9783

>  <SCORE.INTRA.POLAR>
0

>  <SCORE.INTRA.POLAR.0>
0

>  <SCORE.INTRA.REPUL>
0

>  <SCORE.INTRA.REPUL.0>
0

>  <SCORE.INTRA.VDW>
-7.11844

>  <SCORE.INTRA.VDW.0>
4.87734

>  <SCORE.INTRA.norm>
-0.204684

>  <SCORE.RESTR>
0

>  <SCORE.RESTR.CAVITY>
0

>  <SCORE.RESTR.norm>
0

>  <SCORE.SYSTEM>
-28.0717

>  <SCORE.SYSTEM.CONST>
0

>  <SCORE.SYSTEM.DIHEDRAL>
3.98206

>  <SCORE.SYSTEM.POLAR>
-7.6418

>  <SCORE.SYSTEM.REPUL>
0.101477

>  <SCORE.SYSTEM.VDW>
-4.58801

>  <SCORE.SYSTEM.norm>
-1.16965

>  <SCORE.heavy>
24

>  <SCORE.norm>
-1.94619

$$$$
TOL.pdb
  rDOCK(R)          3D
libRbt.so/2013.1/901 2013/11/27
 25 26  0  0  0  0  0  0  0  0999 V2000
   19.1028   30.7005   70.8241 C   0  0  0  0  0  0
   18.2301   29.9290   71.5197 F   0  0  0  0  0  0
   18.7825   31.9951   71.0878 F   0  0  0  0  0  0
   20.3485   30.4832   71.3240 F   0  0  0  0  0  0
   19.0579   30.3880   69.3127 C   0  0  0  0  0  0
   20.1813   29.9545   68.5616 C   0  0  0  0  0  0
   21.3480   29.7992   69.1608 O   0  0  0  0  0  0
   22.2717   30.8287   68.8479 C   0  0  0  0  0  0
   20.0337   29.6989   67.1806 C   0  0  0  0  0  0
   18.7963   29.8673   66.5490 C   0  0  0  0  0  0
   17.6794   30.2999   67.2907 C   0  0  0  0  0  0
   16.4346   30.4676   66.6401 C   0  0  0  0  0  0
   15.3212   30.8977   67.3803 C   0  0  0  0  0  0
   15.4392   31.1599   68.7472 C   0  0  0  0  0  0
   16.6736   30.9917   69.3870 C   0  0  0  0  0  0
   17.8043   30.5612   68.6683 C   0  0  0  0  0  0
   16.2167   30.2071   65.1682 C   0  0  0  0  0  0
   16.2772   28.5993   64.5786 S   0  0  0  0  0  0
   15.9657   31.2292   64.3487 N   0  0  0  0  0  0
   15.8134   32.5742   64.8925 C   0  0  0  0  0  0
   15.8182   31.0381   62.9093 C   0  0  0  0  0  0
   17.1750   31.1021   62.1874 C   0  0  0  0  0  0
   17.8064   30.1142   61.9184 O   0  0  0  0  0  0
   17.6002   32.3309   61.8734 O   0  0  0  0  0  0
   18.4096   32.4437   61.4149 H   0  0  0  0  0  0
  1  2  1  0  0  0
  1  3  1  0  0  0
  1  4  1  0  0  0
  1  5  1  0  0  0
  5  6  2  0  0  0
  5 16  1  0  0  0
  6  7  1  0  0  0
  6  9  1  0  0  0
  7  8  1  0  0  0
  9 10  2  0  0  0
 10 11  1  0  0  0
 11 12  2  0  0  0
 11 16  1  0  0  0
 12 13  1  0  0  0
 12 17  1  0  0  0
 13 14  2  0  0  0
 14 15  1  0  0  0
 15 16  2  0  0  0
 17 18  2  0  0  0
 17 19  1  0  0  0
 19 20  1  0  0  0
 19 21  1  0  0  0
 21 22  1  0  0  0
 22 23  2  0  0  0
 22 24  1  0  0  0
 24 25  1  0  0  0
M  END
>  <CHROM.0>
173.26738626,51.94872744,42.25232285,52.17096305,54.64236031,179.00235199
65.15575332,110.44646892,-139.96524210,-65.39827403,-165.06956692,-58.12081807
-172.40950152,63.01995151,172.52667258,-106.47171628

>  <CHROM.1>
-121.35271418,-105.78109112,69.22309664,-87.17807459,95.73444959,-178.60477224
17.92315386,30.56082075,67.06255682,1.17202387,-0.11921328,1.54710150

>  <FORMUL>
      TOL    C16 H14 F3 N1 O3 S1

>  <HET>
 TOL  A 320      24

>  <HETNAM>
     TOL TOLRESTAT

>  <Name>
TOL.pdb

>  <RI>
0

>  <Rbt.Current_Directory>
/home/malgorzata/Desktop/rDOCK_IFD/Wyniki/1b_aldose_reductase/IFD

>  <Rbt.Executable>
rbdock ($Id: //depot/dev/client3/rdock/2013.1/src/exe/rbdock.cxx#4 $)

>  <Rbt.Library>
libRbt.so (2013.1, Build901 2013/11/27)

>  <Rbt.Parameter_File>
/home/malgorzata/Desktop/rDock_2013.1_src/data/scripts/dock.prm

>  <Rbt.Receptor>
cavity.prm

>  <SCORE>
-45.536

>  <SCORE.INTER>
-14.7993

>  <SCORE.INTER.CONST>
1

>  <SCORE.INTER.POLAR>
-1.36694

>  <SCORE.INTER.REPUL>
0

>  <SCORE.INTER.ROT>
5

>  <SCORE.INTER.VDW>
-20.5517

>  <SCORE.INTER.norm>
-0.616636

>  <SCORE.INTRA>
-5.16282

>  <SCORE.INTRA.DIHEDRAL>
3.02499

>  <SCORE.INTRA.DIHEDRAL.0>
16.9783

>  <SCORE.INTRA.POLAR>
0

>  <SCORE.INTRA.POLAR.0>
0

>  <SCORE.INTRA.REPUL>
0

>  <SCORE.INTRA.REPUL.0>
0

>  <SCORE.INTRA.VDW>
-6.67532

>  <SCORE.INTRA.VDW.0>
4.87734

>  <SCORE.INTRA.norm>
-0.215117

>  <SCORE.RESTR>
0

>  <SCORE.RESTR.CAVITY>
0

>  <SCORE.RESTR.norm>
0

>  <SCORE.SYSTEM>
-25.5739

>  <SCORE.SYSTEM.CONST>
0

>  <SCORE.SYSTEM.DIHEDRAL>
3.77704

>  <SCORE.SYSTEM.POLAR>
-7.35803

>  <SCORE.SYSTEM.REPUL>
0.0464863

>  <SCORE.SYSTEM.VDW>
-2.67755

>  <SCORE.SYSTEM.norm>
-1.06558

>  <SCORE.heavy>
24

>  <SCORE.norm>
-1.89733

$$$$
TOL.pdb
  rDOCK(R)          3D
libRbt.so/2013.1/901 2013/11/27
 25 26  0  0  0  0  0  0  0  0999 V2000
   19.7435   31.5200   71.2750 C   0  0  0  0  0  0
   20.9795   31.5557   71.8335 F   0  0  0  0  0  0
   18.9872   30.6909   72.0422 F   0  0  0  0  0  0
   19.2020   32.7636   71.3702 F   0  0  0  0  0  0
   19.7984   31.0586   69.8025 C   0  0  0  0  0  0
   20.9934   30.9898   69.0400 C   0  0  0  0  0  0
   22.1426   31.3333   69.5930 O   0  0  0  0  0  0
   22.9373   30.2163   69.9559 C   0  0  0  0  0  0
   20.9335   30.5570   67.6971 C   0  0  0  0  0  0
   19.7134   30.1966   67.1141 C   0  0  0  0  0  0
   18.5247   30.2659   67.8671 C   0  0  0  0  0  0
   17.2977   29.9002   67.2658 C   0  0  0  0  0  0
   16.1131   29.9684   68.0173 C   0  0  0  0  0  0
   16.1429   30.3950   69.3470 C   0  0  0  0  0  0
   17.3603   30.7554   69.9382 C   0  0  0  0  0  0
   18.5613   30.6953   69.2073 C   0  0  0  0  0  0
   17.1732   29.4279   65.8363 C   0  0  0  0  0  0
   17.8744   27.9331   65.3782 S   0  0  0  0  0  0
   16.5071   30.1726   64.9525 N   0  0  0  0  0  0
   15.8290   31.3870   65.3923 C   0  0  0  0  0  0
   16.4190   29.7953   63.5454 C   0  0  0  0  0  0
   17.0914   30.8381   62.6361 C   0  0  0  0  0  0
   18.2067   30.6939   62.2094 O   0  0  0  0  0  0
   16.3476   31.9117   62.3472 O   0  0  0  0  0  0
   15.4709   31.9755   62.6718 H   0  0  0  0  0  0
  1  2  1  0  0  0
  1  3  1  0  0  0
  1  4  1  0  0  0
  1  5  1  0  0  0
  5  6  2  0  0  0
  5 16  1  0  0  0
  6  7  1  0  0  0
  6  9  1  0  0  0
  7  8  1  0  0  0
  9 10  2  0  0  0
 10 11  1  0  0  0
 11 12  2  0  0  0
 11 16  1  0  0  0
 12 13  1  0  0  0
 12 17  1  0  0  0
 13 14  2  0  0  0
 14 15  1  0  0  0
 15 16  2  0  0  0
 17 18  2  0  0  0
 17 19  1  0  0  0
 19 20  1  0  0  0
 19 21  1  0  0  0
 21 22  1  0  0  0
 22 23  2  0  0  0
 22 24  1  0  0  0
 24 25  1  0  0  0
M  END
>  <CHROM.0>
-179.52623494,51.92707944,43.43075449,50.11498754,175.27374372,0.72881129
-63.03135102,-138.31614908,-156.51397346,-65.99388667,49.97083086,-58.75991619
-172.47074580,60.71549595,169.37199479,-71.44625568

>  <CHROM.1>
-13.95875467,102.96851091,66.52386828,-116.94450103,98.81725735,-1.90470461
18.55676516,30.55508996,67.62590041,1.12159251,-0.01080069,1.42484744

>  <FORMUL>
      TOL    C16 H14 F3 N1 O3 S1

>  <HET>
 TOL  A 320      24

>  <HETNAM>
     TOL TOLRESTAT

>  <Name>
TOL.pdb

>  <RI>
0

>  <Rbt.Current_Directory>
/home/malgorzata/Desktop/rDOCK_IFD/Wyniki/1b_aldose_reductase/IFD

>  <Rbt.Executable>
rbdock ($Id: //depot/dev/client3/rdock/2013.1/src/exe/rbdock.cxx#4 $)

>  <Rbt.Library>
libRbt.so (2013.1, Build901 2013/11/27)

>  <Rbt.Parameter_File>
/home/malgorzata/Desktop/rDock_2013.1_src/data/scripts/dock.prm

>  <Rbt.Receptor>
cavity.prm

>  <SCORE>
-47.1858

>  <SCORE.INTER>
-16.2275

>  <SCORE.INTER.CONST>
1

>  <SCORE.INTER.POLAR>
-1.54224

>  <SCORE.INTER.REPUL>
0

>  <SCORE.INTER.ROT>
5

>  <SCORE.INTER.VDW>
-21.3839

>  <SCORE.INTER.norm>
-0.676145

>  <SCORE.INTRA>
-3.73196

>  <SCORE.INTRA.DIHEDRAL>
2.78685

>  <SCORE.INTRA.DIHEDRAL.0>
16.9783

>  <SCORE.INTRA.POLAR>
0

>  <SCORE.INTRA.POLAR.0>
0

>  <SCORE.INTRA.REPUL>
0

>  <SCORE.INTRA.REPUL.0>
0

>  <SCORE.INTRA.VDW>
-5.12538

>  <SCORE.INTRA.VDW.0>
4.87734

>  <SCORE.INTRA.norm>
-0.155498

>  <SCORE.RESTR>
0

>  <SCORE.RESTR.CAVITY>
0

>  <SCORE.RESTR.norm>
0

>  <SCORE.SYSTEM>
-27.2264

>  <SCORE.SYSTEM.CONST>
0

>  <SCORE.SYSTEM.DIHEDRAL>
3.7519

>  <SCORE.SYSTEM.POLAR>
-7.57647

>  <SCORE.SYSTEM.VDW>
-3.34233

>  <SCORE.SYSTEM.norm>
-1.13443

>  <SCORE.heavy>
24

>  <SCORE.norm>
-1.96608

$$$$
