TOL.pdb
  rDOCK(R)          3D
libRbt.so/2013.1/901 2013/11/27
 25 26  0  0  0  0  0  0  0  0999 V2000
   16.7588   29.2657   63.4418 C   0  0  0  0  0  0
   15.7135   30.1272   63.5197 F   0  0  0  0  0  0
   16.5471   28.4856   62.3488 F   0  0  0  0  0  0
   17.8854   29.9903   63.2083 F   0  0  0  0  0  0
   16.9037   28.4298   64.7320 C   0  0  0  0  0  0
   16.9908   27.0135   64.7503 C   0  0  0  0  0  0
   16.9488   26.3410   63.6144 O   0  0  0  0  0  0
   15.7270   25.6458   63.4282 C   0  0  0  0  0  0
   17.1179   26.3438   65.9871 C   0  0  0  0  0  0
   17.1592   27.0600   67.1888 C   0  0  0  0  0  0
   17.0705   28.4660   67.1748 C   0  0  0  0  0  0
   17.1121   29.1780   68.3964 C   0  0  0  0  0  0
   17.0248   30.5797   68.3817 C   0  0  0  0  0  0
   16.8964   31.2676   67.1729 C   0  0  0  0  0  0
   16.8564   30.5582   65.9660 C   0  0  0  0  0  0
   16.9426   29.1537   65.9532 C   0  0  0  0  0  0
   17.2494   28.5165   69.7475 C   0  0  0  0  0  0
   15.8922   27.7389   70.4472 S   0  0  0  0  0  0
   18.4279   28.5331   70.3720 N   0  0  0  0  0  0
   19.5926   29.1076   69.7077 C   0  0  0  0  0  0
   18.5942   27.9704   71.7083 C   0  0  0  0  0  0
   18.5892   26.4324   71.6800 C   0  0  0  0  0  0
   17.9338   25.7782   72.4477 O   0  0  0  0  0  0
   19.3578   25.8736   70.7384 O   0  0  0  0  0  0
   19.3903   24.9411   70.6528 H   0  0  0  0  0  0
  1  2  1  0  0  0
  1  3  1  0  0  0
  1  4  1  0  0  0
  1  5  1  0  0  0
  5  6  2  0  0  0
  5 16  1  0  0  0
  6  7  1  0  0  0
  6  9  1  0  0  0
  7  8  1  0  0  0
  9 10  2  0  0  0
 10 11  1  0  0  0
 11 12  2  0  0  0
 11 16  1  0  0  0
 12 13  1  0  0  0
 12 17  1  0  0  0
 13 14  2  0  0  0
 14 15  1  0  0  0
 15 16  2  0  0  0
 17 18  2  0  0  0
 17 19  1  0  0  0
 19 20  1  0  0  0
 19 21  1  0  0  0
 21 22  1  0  0  0
 22 23  2  0  0  0
 22 24  1  0  0  0
 24 25  1  0  0  0
M  END
>  <CHROM.0>
-66.30833934,-168.00184140,-73.49151467,12.45564059,173.28271675,-60.50962204
-179.76886935,21.85580842,173.26294262,179.43154345,-64.79676032,-178.15533622
-171.15021238,173.28826984,171.40467273,97.66812595

>  <CHROM.1>
127.98401040,-107.58191141,-76.27030524,74.07956918,-132.92500328,-178.85191389
17.23746154,28.20516452,67.21080133,-3.05056893,1.39174229,-3.06503002

>  <FORMUL>
      TOL    C16 H14 F3 N1 O3 S1

>  <HET>
 TOL  A 320      24

>  <HETNAM>
     TOL TOLRESTAT

>  <Name>
TOL.pdb

>  <RI>
1.44506e+07

>  <Rbt.Current_Directory>
/home/malgorzata/Desktop/rDOCK_IFD/Wyniki/1_aldose_reductase/IFD

>  <Rbt.Executable>
rbdock ($Id: //depot/dev/client3/rdock/2013.1/src/exe/rbdock.cxx#4 $)

>  <Rbt.Library>
libRbt.so (2013.1, Build901 2013/11/27)

>  <Rbt.Parameter_File>
/home/malgorzata/Desktop/rDock_2013.1_src/data/scripts/dock.prm

>  <Rbt.Receptor>
cavity.prm

>  <SCORE>
-45.8464

>  <SCORE.INTER>
-17.4563

>  <SCORE.INTER.CONST>
1

>  <SCORE.INTER.POLAR>
-2.15508

>  <SCORE.INTER.REPUL>
0.14216

>  <SCORE.INTER.ROT>
5

>  <SCORE.INTER.VDW>
-21.2399

>  <SCORE.INTER.norm>
-0.727347

>  <SCORE.INTRA>
-5.29439

>  <SCORE.INTRA.DIHEDRAL>
3.99402

>  <SCORE.INTRA.DIHEDRAL.0>
16.9783

>  <SCORE.INTRA.POLAR>
0

>  <SCORE.INTRA.POLAR.0>
0

>  <SCORE.INTRA.REPUL>
0

>  <SCORE.INTRA.REPUL.0>
0

>  <SCORE.INTRA.VDW>
-7.2914

>  <SCORE.INTRA.VDW.0>
4.87734

>  <SCORE.INTRA.norm>
-0.2206

>  <SCORE.RESTR>
0

>  <SCORE.RESTR.CAVITY>
0

>  <SCORE.RESTR.norm>
0

>  <SCORE.SYSTEM>
-23.0957

>  <SCORE.SYSTEM.CONST>
0

>  <SCORE.SYSTEM.DIHEDRAL>
3.61304

>  <SCORE.SYSTEM.POLAR>
-6.75617

>  <SCORE.SYSTEM.REPUL>
0.368242

>  <SCORE.SYSTEM.VDW>
-3.77242

>  <SCORE.SYSTEM.norm>
-0.96232

>  <SCORE.heavy>
24

>  <SCORE.norm>
-1.91027

$$$$
TOL.pdb
  rDOCK(R)          3D
libRbt.so/2013.1/901 2013/11/27
 25 26  0  0  0  0  0  0  0  0999 V2000
   16.8174   29.3338   63.3161 C   0  0  0  0  0  0
   16.7954   28.5858   62.1844 F   0  0  0  0  0  0
   17.8658   30.1916   63.2022 F   0  0  0  0  0  0
   15.6838   30.0840   63.3474 F   0  0  0  0  0  0
   16.9242   28.4512   64.5786 C   0  0  0  0  0  0
   17.0025   27.0345   64.5481 C   0  0  0  0  0  0
   16.9857   26.4035   63.3880 O   0  0  0  0  0  0
   15.7639   25.7260   63.1448 C   0  0  0  0  0  0
   17.0939   26.3202   65.7628 C   0  0  0  0  0  0
   17.1087   26.9925   66.9901 C   0  0  0  0  0  0
   17.0287   28.3986   67.0245 C   0  0  0  0  0  0
   17.0432   29.0661   68.2716 C   0  0  0  0  0  0
   16.9646   30.4680   68.3052 C   0  0  0  0  0  0
   16.8712   31.1997   67.1191 C   0  0  0  0  0  0
   16.8580   30.5343   65.8868 C   0  0  0  0  0  0
   16.9362   29.1305   65.8256 C   0  0  0  0  0  0
   17.1419   28.3557   69.6011 C   0  0  0  0  0  0
   15.7394   27.6476   70.2847 S   0  0  0  0  0  0
   18.3215   28.2757   70.2189 N   0  0  0  0  0  0
   19.5188   28.7928   69.5655 C   0  0  0  0  0  0
   18.4556   27.6624   71.5364 C   0  0  0  0  0  0
   18.7675   26.1597   71.4326 C   0  0  0  0  0  0
   19.4420   25.7036   70.5471 O   0  0  0  0  0  0
   18.2432   25.3970   72.3984 O   0  0  0  0  0  0
   18.3264   24.4647   72.3563 H   0  0  0  0  0  0
  1  2  1  0  0  0
  1  3  1  0  0  0
  1  4  1  0  0  0
  1  5  1  0  0  0
  5  6  2  0  0  0
  5 16  1  0  0  0
  6  7  1  0  0  0
  6  9  1  0  0  0
  7  8  1  0  0  0
  9 10  2  0  0  0
 10 11  1  0  0  0
 11 12  2  0  0  0
 11 16  1  0  0  0
 12 13  1  0  0  0
 12 17  1  0  0  0
 13 14  2  0  0  0
 14 15  1  0  0  0
 15 16  2  0  0  0
 17 18  2  0  0  0
 17 19  1  0  0  0
 19 20  1  0  0  0
 19 21  1  0  0  0
 21 22  1  0  0  0
 22 23  2  0  0  0
 22 24  1  0  0  0
 24 25  1  0  0  0
M  END
>  <CHROM.0>
51.60078199,9.12100884,-69.04748236,10.65881615,53.71541803,-58.07205106
65.58272198,-75.66582417,167.42674866,-62.05862734,55.19954924,65.20244845
-174.80393118,170.69795332,173.72747946,99.01860101

>  <CHROM.1>
0.57974575,-107.45964551,-80.10197105,90.97120555,34.20974235,174.44799960
17.23515918,28.12703851,67.06525237,2.95428174,1.39549640,-2.73739910

>  <FORMUL>
      TOL    C16 H14 F3 N1 O3 S1

>  <HET>
 TOL  A 320      24

>  <HETNAM>
     TOL TOLRESTAT

>  <Name>
TOL.pdb

>  <RI>
1.44506e+07

>  <Rbt.Current_Directory>
/home/malgorzata/Desktop/rDOCK_IFD/Wyniki/1_aldose_reductase/IFD

>  <Rbt.Executable>
rbdock ($Id: //depot/dev/client3/rdock/2013.1/src/exe/rbdock.cxx#4 $)

>  <Rbt.Library>
libRbt.so (2013.1, Build901 2013/11/27)

>  <Rbt.Parameter_File>
/home/malgorzata/Desktop/rDock_2013.1_src/data/scripts/dock.prm

>  <Rbt.Receptor>
cavity.prm

>  <SCORE>
-50.4041

>  <SCORE.INTER>
-21.1784

>  <SCORE.INTER.CONST>
1

>  <SCORE.INTER.POLAR>
-2.37235

>  <SCORE.INTER.REPUL>
0

>  <SCORE.INTER.ROT>
5

>  <SCORE.INTER.VDW>
-23.5124

>  <SCORE.INTER.norm>
-0.882434

>  <SCORE.INTRA>
-4.95012

>  <SCORE.INTRA.DIHEDRAL>
4.56476

>  <SCORE.INTRA.DIHEDRAL.0>
16.9783

>  <SCORE.INTRA.POLAR>
0

>  <SCORE.INTRA.POLAR.0>
0

>  <SCORE.INTRA.REPUL>
0

>  <SCORE.INTRA.REPUL.0>
0

>  <SCORE.INTRA.VDW>
-7.2325

>  <SCORE.INTRA.VDW.0>
4.87734

>  <SCORE.INTRA.norm>
-0.206255

>  <SCORE.RESTR>
0

>  <SCORE.RESTR.CAVITY>
0

>  <SCORE.RESTR.norm>
0

>  <SCORE.SYSTEM>
-24.2756

>  <SCORE.SYSTEM.CONST>
0

>  <SCORE.SYSTEM.DIHEDRAL>
3.66073

>  <SCORE.SYSTEM.POLAR>
-7.21502

>  <SCORE.SYSTEM.REPUL>
0.67515

>  <SCORE.SYSTEM.VDW>
-4.95061

>  <SCORE.SYSTEM.norm>
-1.01148

>  <SCORE.heavy>
24

>  <SCORE.norm>
-2.10017

$$$$
TOL.pdb
  rDOCK(R)          3D
libRbt.so/2013.1/901 2013/11/27
 25 26  0  0  0  0  0  0  0  0999 V2000
   16.8057   29.4887   63.3548 C   0  0  0  0  0  0
   16.6862   28.8184   62.1813 F   0  0  0  0  0  0
   17.9043   30.2822   63.2464 F   0  0  0  0  0  0
   15.7279   30.3075   63.4841 F   0  0  0  0  0  0
   16.9047   28.5214   64.5543 C   0  0  0  0  0  0
   16.9456   27.1084   64.4286 C   0  0  0  0  0  0
   16.8981   26.5569   63.2295 O   0  0  0  0  0  0
   18.1446   26.0204   62.8180 C   0  0  0  0  0  0
   17.0330   26.3124   65.5918 C   0  0  0  0  0  0
   17.0802   26.9006   66.8607 C   0  0  0  0  0  0
   17.0374   28.3029   66.9897 C   0  0  0  0  0  0
   17.0845   28.8850   68.2780 C   0  0  0  0  0  0
   17.0430   30.2831   68.4058 C   0  0  0  0  0  0
   16.9545   31.0945   67.2723 C   0  0  0  0  0  0
   16.9089   30.5134   65.9988 C   0  0  0  0  0  0
   16.9496   29.1154   65.8434 C   0  0  0  0  0  0
   17.1807   28.0851   69.5558 C   0  0  0  0  0  0
   15.7549   27.7289   70.4368 S   0  0  0  0  0  0
   18.3715   27.6538   69.9745 N   0  0  0  0  0  0
   19.5547   27.8785   69.1514 C   0  0  0  0  0  0
   18.5261   26.9387   71.2374 C   0  0  0  0  0  0
   19.2440   27.7991   72.2913 C   0  0  0  0  0  0
   18.6841   28.6774   72.8929 O   0  0  0  0  0  0
   20.5310   27.4980   72.4974 O   0  0  0  0  0  0
   21.0308   27.9825   73.1246 H   0  0  0  0  0  0
  1  2  1  0  0  0
  1  3  1  0  0  0
  1  4  1  0  0  0
  1  5  1  0  0  0
  5  6  2  0  0  0
  5 16  1  0  0  0
  6  7  1  0  0  0
  6  9  1  0  0  0
  7  8  1  0  0  0
  9 10  2  0  0  0
 10 11  1  0  0  0
 11 12  2  0  0  0
 11 16  1  0  0  0
 12 13  1  0  0  0
 12 17  1  0  0  0
 13 14  2  0  0  0
 14 15  1  0  0  0
 15 16  2  0  0  0
 17 18  2  0  0  0
 17 19  1  0  0  0
 19 20  1  0  0  0
 19 21  1  0  0  0
 21 22  1  0  0  0
 22 23  2  0  0  0
 22 24  1  0  0  0
 24 25  1  0  0  0
M  END
>  <CHROM.0>
54.48138412,-168.04353292,-91.31687616,12.94883074,176.38510861,64.32737391
-63.35843796,-57.58941880,-166.28727169,-62.63425241,-63.33828783,-175.88193455
-175.77607667,59.52932077,174.76126723,118.44866602

>  <CHROM.1>
3.50508733,107.05772601,-96.51413643,-109.00066263,77.45000449,179.89954400
17.43472326,28.35982327,67.16623616,2.13609304,1.21417186,-2.01507196

>  <FORMUL>
      TOL    C16 H14 F3 N1 O3 S1

>  <HET>
 TOL  A 320      24

>  <HETNAM>
     TOL TOLRESTAT

>  <Name>
TOL.pdb

>  <RI>
1.44506e+07

>  <Rbt.Current_Directory>
/home/malgorzata/Desktop/rDOCK_IFD/Wyniki/1_aldose_reductase/IFD

>  <Rbt.Executable>
rbdock ($Id: //depot/dev/client3/rdock/2013.1/src/exe/rbdock.cxx#4 $)

>  <Rbt.Library>
libRbt.so (2013.1, Build901 2013/11/27)

>  <Rbt.Parameter_File>
/home/malgorzata/Desktop/rDock_2013.1_src/data/scripts/dock.prm

>  <Rbt.Receptor>
cavity.prm

>  <SCORE>
-50.7819

>  <SCORE.INTER>
-15.5667

>  <SCORE.INTER.CONST>
1

>  <SCORE.INTER.POLAR>
-1.41782

>  <SCORE.INTER.REPUL>
0

>  <SCORE.INTER.ROT>
5

>  <SCORE.INTER.VDW>
-21.1461

>  <SCORE.INTER.norm>
-0.648612

>  <SCORE.INTRA>
-4.91631

>  <SCORE.INTRA.DIHEDRAL>
4.46193

>  <SCORE.INTRA.DIHEDRAL.0>
16.9783

>  <SCORE.INTRA.POLAR>
0

>  <SCORE.INTRA.POLAR.0>
0

>  <SCORE.INTRA.REPUL>
0

>  <SCORE.INTRA.REPUL.0>
0

>  <SCORE.INTRA.VDW>
-7.14727

>  <SCORE.INTRA.VDW.0>
4.87734

>  <SCORE.INTRA.norm>
-0.204846

>  <SCORE.RESTR>
0

>  <SCORE.RESTR.CAVITY>
0

>  <SCORE.RESTR.norm>
0

>  <SCORE.SYSTEM>
-30.2989

>  <SCORE.SYSTEM.CONST>
0

>  <SCORE.SYSTEM.DIHEDRAL>
2.99877

>  <SCORE.SYSTEM.POLAR>
-8.48979

>  <SCORE.SYSTEM.REPUL>
0.366064

>  <SCORE.SYSTEM.VDW>
-4.76334

>  <SCORE.SYSTEM.norm>
-1.26245

>  <SCORE.heavy>
24

>  <SCORE.norm>
-2.11591

$$$$
TOL.pdb
  rDOCK(R)          3D
libRbt.so/2013.1/901 2013/11/27
 25 26  0  0  0  0  0  0  0  0999 V2000
   16.8597   29.7337   64.6896 C   0  0  0  0  0  0
   15.8119   28.8774   64.7884 F   0  0  0  0  0  0
   17.3330   29.6339   63.4191 F   0  0  0  0  0  0
   16.3863   30.9987   64.8457 F   0  0  0  0  0  0
   17.9480   29.4235   65.7402 C   0  0  0  0  0  0
   19.2668   29.0128   65.4142 C   0  0  0  0  0  0
   19.6156   28.8786   64.1475 O   0  0  0  0  0  0
   19.6477   27.5259   63.7231 C   0  0  0  0  0  0
   20.1865   28.7500   66.4531 C   0  0  0  0  0  0
   19.8121   28.8907   67.7942 C   0  0  0  0  0  0
   18.5031   29.2959   68.1218 C   0  0  0  0  0  0
   18.1367   29.4330   69.4812 C   0  0  0  0  0  0
   16.8320   29.8382   69.8070 C   0  0  0  0  0  0
   15.9013   30.1026   68.7997 C   0  0  0  0  0  0
   16.2690   29.9661   67.4552 C   0  0  0  0  0  0
   17.5700   29.5623   67.1019 C   0  0  0  0  0  0
   19.0775   29.1688   70.6331 C   0  0  0  0  0  0
   19.4954   30.4501   71.6913 S   0  0  0  0  0  0
   19.5593   27.9391   70.8210 N   0  0  0  0  0  0
   19.1043   26.8443   69.9711 C   0  0  0  0  0  0
   20.5253   27.6483   71.8756 C   0  0  0  0  0  0
   21.9322   28.1514   71.5096 C   0  0  0  0  0  0
   22.7876   28.3247   72.3373 O   0  0  0  0  0  0
   22.1403   28.3756   70.2073 O   0  0  0  0  0  0
   22.9602   28.7243   69.9172 H   0  0  0  0  0  0
  1  2  1  0  0  0
  1  3  1  0  0  0
  1  4  1  0  0  0
  1  5  1  0  0  0
  5  6  2  0  0  0
  5 16  1  0  0  0
  6  7  1  0  0  0
  6  9  1  0  0  0
  7  8  1  0  0  0
  9 10  2  0  0  0
 10 11  1  0  0  0
 11 12  2  0  0  0
 11 16  1  0  0  0
 12 13  1  0  0  0
 12 17  1  0  0  0
 13 14  2  0  0  0
 14 15  1  0  0  0
 15 16  2  0  0  0
 17 18  2  0  0  0
 17 19  1  0  0  0
 19 20  1  0  0  0
 19 21  1  0  0  0
 21 22  1  0  0  0
 22 23  2  0  0  0
 22 24  1  0  0  0
 24 25  1  0  0  0
M  END
>  <CHROM.0>
54.89231666,-167.32298157,-64.63762710,10.99333231,53.49260670,-58.02257530
-179.65092646,-79.86130346,176.08230500,175.80946644,-63.55503742,-176.17501648
-169.14812189,173.87197084,172.61197583,-117.99703859

>  <CHROM.1>
116.67917402,-102.47709352,117.09192491,-75.52894035,160.84824133,176.91359313
18.80020968,29.10446168,68.00811320,2.07139582,0.42111788,-1.67894339

>  <FORMUL>
      TOL    C16 H14 F3 N1 O3 S1

>  <HET>
 TOL  A 320      24

>  <HETNAM>
     TOL TOLRESTAT

>  <Name>
TOL.pdb

>  <RI>
1.44506e+07

>  <Rbt.Current_Directory>
/home/malgorzata/Desktop/rDOCK_IFD/Wyniki/1_aldose_reductase/IFD

>  <Rbt.Executable>
rbdock ($Id: //depot/dev/client3/rdock/2013.1/src/exe/rbdock.cxx#4 $)

>  <Rbt.Library>
libRbt.so (2013.1, Build901 2013/11/27)

>  <Rbt.Parameter_File>
/home/malgorzata/Desktop/rDock_2013.1_src/data/scripts/dock.prm

>  <Rbt.Receptor>
cavity.prm

>  <SCORE>
-43.2045

>  <SCORE.INTER>
-10.8571

>  <SCORE.INTER.CONST>
1

>  <SCORE.INTER.POLAR>
-0.917664

>  <SCORE.INTER.REPUL>
0

>  <SCORE.INTER.ROT>
5

>  <SCORE.INTER.VDW>
-18.137

>  <SCORE.INTER.norm>
-0.452378

>  <SCORE.INTRA>
-5.8338

>  <SCORE.INTRA.DIHEDRAL>
2.28312

>  <SCORE.INTRA.DIHEDRAL.0>
16.9783

>  <SCORE.INTRA.POLAR>
0

>  <SCORE.INTRA.POLAR.0>
0

>  <SCORE.INTRA.REPUL>
0

>  <SCORE.INTRA.REPUL.0>
0

>  <SCORE.INTRA.VDW>
-6.97536

>  <SCORE.INTRA.VDW.0>
4.87734

>  <SCORE.INTRA.norm>
-0.243075

>  <SCORE.RESTR>
0

>  <SCORE.RESTR.CAVITY>
0

>  <SCORE.RESTR.norm>
0

>  <SCORE.SYSTEM>
-26.5136

>  <SCORE.SYSTEM.CONST>
0

>  <SCORE.SYSTEM.DIHEDRAL>
3.68727

>  <SCORE.SYSTEM.POLAR>
-7.42885

>  <SCORE.SYSTEM.REPUL>
0.374142

>  <SCORE.SYSTEM.VDW>
-4.96991

>  <SCORE.SYSTEM.norm>
-1.10474

>  <SCORE.heavy>
24

>  <SCORE.norm>
-1.80019

$$$$
TOL.pdb
  rDOCK(R)          3D
libRbt.so/2013.1/901 2013/11/27
 25 26  0  0  0  0  0  0  0  0999 V2000
   23.0162   26.9071   73.9600 C   0  0  0  0  0  0
   23.8594   27.8996   73.5795 F   0  0  0  0  0  0
   23.7837   25.8168   74.2251 F   0  0  0  0  0  0
   22.4271   27.2793   75.1275 F   0  0  0  0  0  0
   21.9528   26.6190   72.8782 C   0  0  0  0  0  0
   21.8857   25.4099   72.1383 C   0  0  0  0  0  0
   22.7698   24.4551   72.3643 O   0  0  0  0  0  0
   23.8234   24.4411   71.4152 C   0  0  0  0  0  0
   20.8736   25.2483   71.1668 C   0  0  0  0  0  0
   19.9404   26.2636   70.9284 C   0  0  0  0  0  0
   20.0053   27.4663   71.6593 C   0  0  0  0  0  0
   19.0570   28.4853   71.4078 C   0  0  0  0  0  0
   19.1215   29.6836   72.1376 C   0  0  0  0  0  0
   20.1133   29.8712   73.1030 C   0  0  0  0  0  0
   21.0495   28.8590   73.3488 C   0  0  0  0  0  0
   21.0065   27.6488   72.6319 C   0  0  0  0  0  0
   17.9522   28.3677   70.3844 C   0  0  0  0  0  0
   16.4034   27.8228   70.8746 S   0  0  0  0  0  0
   18.1916   28.7030   69.1157 N   0  0  0  0  0  0
   19.4859   29.2650   68.7459 C   0  0  0  0  0  0
   17.1794   28.5405   68.0769 C   0  0  0  0  0  0
   16.1923   29.7202   68.0583 C   0  0  0  0  0  0
   15.6867   30.1502   69.0615 O   0  0  0  0  0  0
   15.9412   30.2389   66.8511 O   0  0  0  0  0  0
   15.4008   31.0002   66.7715 H   0  0  0  0  0  0
  1  2  1  0  0  0
  1  3  1  0  0  0
  1  4  1  0  0  0
  1  5  1  0  0  0
  5  6  2  0  0  0
  5 16  1  0  0  0
  6  7  1  0  0  0
  6  9  1  0  0  0
  7  8  1  0  0  0
  9 10  2  0  0  0
 10 11  1  0  0  0
 11 12  2  0  0  0
 11 16  1  0  0  0
 12 13  1  0  0  0
 12 17  1  0  0  0
 13 14  2  0  0  0
 14 15  1  0  0  0
 15 16  2  0  0  0
 17 18  2  0  0  0
 17 19  1  0  0  0
 19 20  1  0  0  0
 19 21  1  0  0  0
 21 22  1  0  0  0
 22 23  2  0  0  0
 22 24  1  0  0  0
 24 25  1  0  0  0
M  END
>  <CHROM.0>
53.64545595,-166.83296024,-84.91624343,-29.82200190,-66.73374594,63.34070428
-64.35183522,-72.65747585,179.92774403,-61.34676929,-65.48535162,71.45691882
59.62046724,65.16379476,173.21000785,-75.32721986

>  <CHROM.1>
112.97485404,-99.29130866,94.20682815,82.44832729,-46.77211487,-175.35651299
19.98242851,27.70673342,71.40654103,0.12544220,-0.70719237,0.77853529

>  <FORMUL>
      TOL    C16 H14 F3 N1 O3 S1

>  <HET>
 TOL  A 320      24

>  <HETNAM>
     TOL TOLRESTAT

>  <Name>
TOL.pdb

>  <RI>
1.44506e+07

>  <Rbt.Current_Directory>
/home/malgorzata/Desktop/rDOCK_IFD/Wyniki/1_aldose_reductase/IFD

>  <Rbt.Executable>
rbdock ($Id: //depot/dev/client3/rdock/2013.1/src/exe/rbdock.cxx#4 $)

>  <Rbt.Library>
libRbt.so (2013.1, Build901 2013/11/27)

>  <Rbt.Parameter_File>
/home/malgorzata/Desktop/rDock_2013.1_src/data/scripts/dock.prm

>  <Rbt.Receptor>
cavity.prm

>  <SCORE>
-44.0863

>  <SCORE.INTER>
-9.75154

>  <SCORE.INTER.CONST>
1

>  <SCORE.INTER.POLAR>
-2.03963

>  <SCORE.INTER.REPUL>
5.36589e-05

>  <SCORE.INTER.ROT>
5

>  <SCORE.INTER.VDW>
-13.2171

>  <SCORE.INTER.norm>
-0.406314

>  <SCORE.INTRA>
-5.10571

>  <SCORE.INTRA.DIHEDRAL>
5.08994

>  <SCORE.INTRA.DIHEDRAL.0>
16.9783

>  <SCORE.INTRA.POLAR>
0

>  <SCORE.INTRA.POLAR.0>
0

>  <SCORE.INTRA.REPUL>
0

>  <SCORE.INTRA.REPUL.0>
0

>  <SCORE.INTRA.VDW>
-7.65068

>  <SCORE.INTRA.VDW.0>
4.87734

>  <SCORE.INTRA.norm>
-0.212738

>  <SCORE.RESTR>
0.00993004

>  <SCORE.RESTR.CAVITY>
0.00993004

>  <SCORE.RESTR.norm>
0.000413752

>  <SCORE.SYSTEM>
-29.239

>  <SCORE.SYSTEM.CONST>
0

>  <SCORE.SYSTEM.DIHEDRAL>
4.42711

>  <SCORE.SYSTEM.POLAR>
-8.10434

>  <SCORE.SYSTEM.REPUL>
0.31278

>  <SCORE.SYSTEM.VDW>
-5.46168

>  <SCORE.SYSTEM.norm>
-1.21829

>  <SCORE.heavy>
24

>  <SCORE.norm>
-1.83693

$$$$
TOL.pdb
  rDOCK(R)          3D
libRbt.so/2013.1/901 2013/11/27
 25 26  0  0  0  0  0  0  0  0999 V2000
   16.9112   29.7942   64.8245 C   0  0  0  0  0  0
   16.4073   31.0405   65.0076 F   0  0  0  0  0  0
   15.8644   28.9300   64.8993 F   0  0  0  0  0  0
   17.4051   29.7211   63.5598 F   0  0  0  0  0  0
   18.0088   29.4671   65.8601 C   0  0  0  0  0  0
   19.3187   29.0431   65.5160 C   0  0  0  0  0  0
   19.6503   28.9107   64.2444 O   0  0  0  0  0  0
   19.5053   27.5820   63.7706 C   0  0  0  0  0  0
   20.2482   28.7654   66.5422 C   0  0  0  0  0  0
   19.8920   28.9043   67.8885 C   0  0  0  0  0  0
   18.5918   29.3226   68.2340 C   0  0  0  0  0  0
   18.2439   29.4577   69.5984 C   0  0  0  0  0  0
   16.9479   29.8760   69.9422 C   0  0  0  0  0  0
   16.0079   30.1554   68.9477 C   0  0  0  0  0  0
   16.3573   30.0208   67.5981 C   0  0  0  0  0  0
   17.6492   29.6041   67.2270 C   0  0  0  0  0  0
   19.1957   29.1777   70.7375 C   0  0  0  0  0  0
   19.6210   30.4435   71.8113 S   0  0  0  0  0  0
   19.6816   27.9464   70.9020 N   0  0  0  0  0  0
   19.2208   26.8638   70.0397 C   0  0  0  0  0  0
   20.6579   27.6413   71.9430 C   0  0  0  0  0  0
   22.0122   28.3156   71.6646 C   0  0  0  0  0  0
   22.4835   28.3774   70.5596 O   0  0  0  0  0  0
   22.6253   28.8343   72.7343 O   0  0  0  0  0  0
   23.4740   29.2215   72.6460 H   0  0  0  0  0  0
  1  2  1  0  0  0
  1  3  1  0  0  0
  1  4  1  0  0  0
  1  5  1  0  0  0
  5  6  2  0  0  0
  5 16  1  0  0  0
  6  7  1  0  0  0
  6  9  1  0  0  0
  7  8  1  0  0  0
  9 10  2  0  0  0
 10 11  1  0  0  0
 11 12  2  0  0  0
 11 16  1  0  0  0
 12 13  1  0  0  0
 12 17  1  0  0  0
 13 14  2  0  0  0
 14 15  1  0  0  0
 15 16  2  0  0  0
 17 18  2  0  0  0
 17 19  1  0  0  0
 19 20  1  0  0  0
 19 21  1  0  0  0
 21 22  1  0  0  0
 22 23  2  0  0  0
 22 24  1  0  0  0
 24 25  1  0  0  0
M  END
>  <CHROM.0>
49.56024445,-175.54155642,-78.07576362,-135.72500457,53.31337401,175.49961669
-56.53010393,-61.11419257,-175.40026542,-62.81953802,-60.89215998,-51.88967818
-170.60047614,65.24417016,172.42488603,116.33326853

>  <CHROM.1>
-125.18745199,-95.27188242,118.08823782,-67.77639541,-40.20633498,176.88306615
18.87715099,29.16226969,68.15198769,2.07535913,0.41635623,-1.69280421

>  <FORMUL>
      TOL    C16 H14 F3 N1 O3 S1

>  <HET>
 TOL  A 320      24

>  <HETNAM>
     TOL TOLRESTAT

>  <Name>
TOL.pdb

>  <RI>
1.44506e+07

>  <Rbt.Current_Directory>
/home/malgorzata/Desktop/rDOCK_IFD/Wyniki/1_aldose_reductase/IFD

>  <Rbt.Executable>
rbdock ($Id: //depot/dev/client3/rdock/2013.1/src/exe/rbdock.cxx#4 $)

>  <Rbt.Library>
libRbt.so (2013.1, Build901 2013/11/27)

>  <Rbt.Parameter_File>
/home/malgorzata/Desktop/rDock_2013.1_src/data/scripts/dock.prm

>  <Rbt.Receptor>
cavity.prm

>  <SCORE>
-44.6804

>  <SCORE.INTER>
-12.5427

>  <SCORE.INTER.CONST>
1

>  <SCORE.INTER.POLAR>
-1.22312

>  <SCORE.INTER.REPUL>
0

>  <SCORE.INTER.ROT>
5

>  <SCORE.INTER.VDW>
-18.7841

>  <SCORE.INTER.norm>
-0.522613

>  <SCORE.INTRA>
-5.49102

>  <SCORE.INTRA.DIHEDRAL>
2.32097

>  <SCORE.INTRA.DIHEDRAL.0>
16.9783

>  <SCORE.INTRA.POLAR>
0

>  <SCORE.INTRA.POLAR.0>
0

>  <SCORE.INTRA.REPUL>
0

>  <SCORE.INTRA.REPUL.0>
0

>  <SCORE.INTRA.VDW>
-6.6515

>  <SCORE.INTRA.VDW.0>
4.87734

>  <SCORE.INTRA.norm>
-0.228793

>  <SCORE.RESTR>
0

>  <SCORE.RESTR.CAVITY>
0

>  <SCORE.RESTR.norm>
0

>  <SCORE.SYSTEM>
-26.6466

>  <SCORE.SYSTEM.CONST>
0

>  <SCORE.SYSTEM.DIHEDRAL>
6.31502

>  <SCORE.SYSTEM.POLAR>
-8.23893

>  <SCORE.SYSTEM.REPUL>
0.753676

>  <SCORE.SYSTEM.VDW>
-5.56016

>  <SCORE.SYSTEM.norm>
-1.11028

>  <SCORE.heavy>
24

>  <SCORE.norm>
-1.86168

$$$$
TOL.pdb
  rDOCK(R)          3D
libRbt.so/2013.1/901 2013/11/27
 25 26  0  0  0  0  0  0  0  0999 V2000
   18.5798   29.5074   63.3203 C   0  0  0  0  0  0
   18.3334   28.2182   62.9769 F   0  0  0  0  0  0
   19.9183   29.7032   63.1853 F   0  0  0  0  0  0
   17.9612   30.3104   62.4140 F   0  0  0  0  0  0
   18.0893   29.8182   64.7510 C   0  0  0  0  0  0
   16.9632   30.6317   65.0411 C   0  0  0  0  0  0
   16.2727   31.1693   64.0519 O   0  0  0  0  0  0
   14.8705   31.0742   64.2408 C   0  0  0  0  0  0
   16.6003   30.8567   66.3872 C   0  0  0  0  0  0
   17.3363   30.2874   67.4325 C   0  0  0  0  0  0
   18.4563   29.4812   67.1486 C   0  0  0  0  0  0
   19.1927   28.9128   68.2142 C   0  0  0  0  0  0
   20.3084   28.1082   67.9304 C   0  0  0  0  0  0
   20.6910   27.8708   66.6083 C   0  0  0  0  0  0
   19.9583   28.4352   65.5566 C   0  0  0  0  0  0
   18.8362   29.2445   65.8139 C   0  0  0  0  0  0
   18.8503   29.1161   69.6714 C   0  0  0  0  0  0
   17.2063   29.1839   70.1496 S   0  0  0  0  0  0
   19.8309   29.2257   70.5691 N   0  0  0  0  0  0
   21.2184   29.0574   70.1515 C   0  0  0  0  0  0
   19.5537   29.4932   71.9767 C   0  0  0  0  0  0
   19.6188   28.2089   72.8210 C   0  0  0  0  0  0
   20.4945   28.0104   73.6214 O   0  0  0  0  0  0
   18.6308   27.3324   72.6087 O   0  0  0  0  0  0
   18.5994   26.5343   73.0986 H   0  0  0  0  0  0
  1  2  1  0  0  0
  1  3  1  0  0  0
  1  4  1  0  0  0
  1  5  1  0  0  0
  5  6  2  0  0  0
  5 16  1  0  0  0
  6  7  1  0  0  0
  6  9  1  0  0  0
  7  8  1  0  0  0
  9 10  2  0  0  0
 10 11  1  0  0  0
 11 12  2  0  0  0
 11 16  1  0  0  0
 12 13  1  0  0  0
 12 17  1  0  0  0
 13 14  2  0  0  0
 14 15  1  0  0  0
 15 16  2  0  0  0
 17 18  2  0  0  0
 17 19  1  0  0  0
 19 20  1  0  0  0
 19 21  1  0  0  0
 21 22  1  0  0  0
 22 23  2  0  0  0
 22 24  1  0  0  0
 24 25  1  0  0  0
M  END
>  <CHROM.0>
50.91197780,-168.39488215,85.62808830,-27.34373679,-66.58543827,-60.02388941
179.73309166,-91.30973131,163.23968410,-61.23295971,179.38420589,-54.22355247
-175.21248876,66.08486632,170.53268002,-73.54673763

>  <CHROM.1>
-108.68401105,136.49783074,37.07483943,100.09120775,110.60814612,-178.98802682
18.57969532,29.28959604,67.39337503,-1.79429344,-0.44601631,1.65426386

>  <FORMUL>
      TOL    C16 H14 F3 N1 O3 S1

>  <HET>
 TOL  A 320      24

>  <HETNAM>
     TOL TOLRESTAT

>  <Name>
TOL.pdb

>  <RI>
1.44506e+07

>  <Rbt.Current_Directory>
/home/malgorzata/Desktop/rDOCK_IFD/Wyniki/1_aldose_reductase/IFD

>  <Rbt.Executable>
rbdock ($Id: //depot/dev/client3/rdock/2013.1/src/exe/rbdock.cxx#4 $)

>  <Rbt.Library>
libRbt.so (2013.1, Build901 2013/11/27)

>  <Rbt.Parameter_File>
/home/malgorzata/Desktop/rDock_2013.1_src/data/scripts/dock.prm

>  <Rbt.Receptor>
cavity.prm

>  <SCORE>
-32.419

>  <SCORE.INTER>
-6.09387

>  <SCORE.INTER.CONST>
1

>  <SCORE.INTER.POLAR>
-0.974643

>  <SCORE.INTER.REPUL>
0

>  <SCORE.INTER.ROT>
5

>  <SCORE.INTER.VDW>
-13.1801

>  <SCORE.INTER.norm>
-0.253911

>  <SCORE.INTRA>
2.74421

>  <SCORE.INTRA.DIHEDRAL>
-5.60373

>  <SCORE.INTRA.DIHEDRAL.0>
16.9783

>  <SCORE.INTRA.POLAR>
0

>  <SCORE.INTRA.POLAR.0>
0

>  <SCORE.INTRA.REPUL>
0

>  <SCORE.INTRA.REPUL.0>
0

>  <SCORE.INTRA.VDW>
5.54607

>  <SCORE.INTRA.VDW.0>
4.87734

>  <SCORE.INTRA.norm>
0.114342

>  <SCORE.RESTR>
0.187913

>  <SCORE.RESTR.CAVITY>
0.187913

>  <SCORE.RESTR.norm>
0.00782971

>  <SCORE.SYSTEM>
-29.2573

>  <SCORE.SYSTEM.CONST>
0

>  <SCORE.SYSTEM.DIHEDRAL>
4.05892

>  <SCORE.SYSTEM.POLAR>
-8.06985

>  <SCORE.SYSTEM.REPUL>
0.327757

>  <SCORE.SYSTEM.VDW>
-5.48801

>  <SCORE.SYSTEM.norm>
-1.21905

>  <SCORE.heavy>
24

>  <SCORE.norm>
-1.35079

$$$$
TOL.pdb
  rDOCK(R)          3D
libRbt.so/2013.1/901 2013/11/27
 25 26  0  0  0  0  0  0  0  0999 V2000
   19.4784   27.1831   62.2384 C   0  0  0  0  0  0
   20.4157   26.2974   62.6599 F   0  0  0  0  0  0
   20.1456   28.2665   61.7596 F   0  0  0  0  0  0
   18.8116   26.6254   61.1928 F   0  0  0  0  0  0
   18.5005   27.5587   63.3728 C   0  0  0  0  0  0
   17.0882   27.4822   63.2564 C   0  0  0  0  0  0
   16.5468   27.0691   62.1248 O   0  0  0  0  0  0
   15.8987   25.8138   62.2477 C   0  0  0  0  0  0
   16.2821   27.8534   64.3549 C   0  0  0  0  0  0
   16.8597   28.2931   65.5513 C   0  0  0  0  0  0
   18.2613   28.3728   65.6699 C   0  0  0  0  0  0
   18.8326   28.8202   66.8841 C   0  0  0  0  0  0
   20.2300   28.8983   67.0021 C   0  0  0  0  0  0
   21.0512   28.5394   65.9308 C   0  0  0  0  0  0
   20.4808   28.0964   64.7308 C   0  0  0  0  0  0
   19.0837   28.0084   64.5871 C   0  0  0  0  0  0
   18.0216   29.2274   68.0917 C   0  0  0  0  0  0
   16.9987   30.5988   67.9969 S   0  0  0  0  0  0
   18.1005   28.5065   69.2113 N   0  0  0  0  0  0
   18.8953   27.2835   69.2319 C   0  0  0  0  0  0
   17.3921   28.8985   70.4257 C   0  0  0  0  0  0
   15.8908   28.5758   70.3349 C   0  0  0  0  0  0
   15.2900   28.6033   69.2932 O   0  0  0  0  0  0
   15.3020   28.2556   71.4926 O   0  0  0  0  0  0
   14.3835   28.0717   71.5158 H   0  0  0  0  0  0
  1  2  1  0  0  0
  1  3  1  0  0  0
  1  4  1  0  0  0
  1  5  1  0  0  0
  5  6  2  0  0  0
  5 16  1  0  0  0
  6  7  1  0  0  0
  6  9  1  0  0  0
  7  8  1  0  0  0
  9 10  2  0  0  0
 10 11  1  0  0  0
 11 12  2  0  0  0
 11 16  1  0  0  0
 12 13  1  0  0  0
 12 17  1  0  0  0
 13 14  2  0  0  0
 14 15  1  0  0  0
 15 16  2  0  0  0
 17 18  2  0  0  0
 17 19  1  0  0  0
 19 20  1  0  0  0
 19 21  1  0  0  0
 21 22  1  0  0  0
 22 23  2  0  0  0
 22 24  1  0  0  0
 24 25  1  0  0  0
M  END
>  <CHROM.0>
-65.83965342,-172.46008850,-34.67800507,-130.80081743,52.26315090,-62.09936958
63.67051971,30.78857628,-170.28650184,-62.60356537,172.83947089,-55.99495020
-170.65732500,175.97308458,174.68312195,-118.35322484

>  <CHROM.1>
-127.75169601,112.20879578,-64.81062934,76.33278151,-31.74244026,178.21458640
18.02529533,28.11622908,65.82536146,-1.30391641,0.14800149,1.29392069

>  <FORMUL>
      TOL    C16 H14 F3 N1 O3 S1

>  <HET>
 TOL  A 320      24

>  <HETNAM>
     TOL TOLRESTAT

>  <Name>
TOL.pdb

>  <RI>
1.44506e+07

>  <Rbt.Current_Directory>
/home/malgorzata/Desktop/rDOCK_IFD/Wyniki/1_aldose_reductase/IFD

>  <Rbt.Executable>
rbdock ($Id: //depot/dev/client3/rdock/2013.1/src/exe/rbdock.cxx#4 $)

>  <Rbt.Library>
libRbt.so (2013.1, Build901 2013/11/27)

>  <Rbt.Parameter_File>
/home/malgorzata/Desktop/rDock_2013.1_src/data/scripts/dock.prm

>  <Rbt.Receptor>
cavity.prm

>  <SCORE>
-45.2102

>  <SCORE.INTER>
-13.8518

>  <SCORE.INTER.CONST>
1

>  <SCORE.INTER.POLAR>
-2.51638

>  <SCORE.INTER.REPUL>
0.749245

>  <SCORE.INTER.ROT>
5

>  <SCORE.INTER.VDW>
-19.4423

>  <SCORE.INTER.norm>
-0.577159

>  <SCORE.INTRA>
-4.96497

>  <SCORE.INTRA.DIHEDRAL>
2.21187

>  <SCORE.INTRA.DIHEDRAL.0>
16.9783

>  <SCORE.INTRA.POLAR>
0

>  <SCORE.INTRA.POLAR.0>
0

>  <SCORE.INTRA.REPUL>
0

>  <SCORE.INTRA.REPUL.0>
0

>  <SCORE.INTRA.VDW>
-6.07091

>  <SCORE.INTRA.VDW.0>
4.87734

>  <SCORE.INTRA.norm>
-0.206874

>  <SCORE.RESTR>
0.0103236

>  <SCORE.RESTR.CAVITY>
0.0103236

>  <SCORE.RESTR.norm>
0.000430151

>  <SCORE.SYSTEM>
-26.4037

>  <SCORE.SYSTEM.CONST>
0

>  <SCORE.SYSTEM.DIHEDRAL>
6.03612

>  <SCORE.SYSTEM.POLAR>
-7.53987

>  <SCORE.SYSTEM.VDW>
-3.78622

>  <SCORE.SYSTEM.norm>
-1.10016

>  <SCORE.heavy>
24

>  <SCORE.norm>
-1.88376

$$$$
TOL.pdb
  rDOCK(R)          3D
libRbt.so/2013.1/901 2013/11/27
 25 26  0  0  0  0  0  0  0  0999 V2000
   16.7454   29.5047   63.3210 C   0  0  0  0  0  0
   16.6230   28.8501   62.1390 F   0  0  0  0  0  0
   17.8230   30.3258   63.2082 F   0  0  0  0  0  0
   15.6506   30.2954   63.4801 F   0  0  0  0  0  0
   16.8863   28.5215   64.5032 C   0  0  0  0  0  0
   16.9594   27.1120   64.3544 C   0  0  0  0  0  0
   16.9069   26.5784   63.1474 O   0  0  0  0  0  0
   18.1557   26.0637   62.7155 C   0  0  0  0  0  0
   17.0841   26.3003   65.5032 C   0  0  0  0  0  0
   17.1367   26.8696   66.7806 C   0  0  0  0  0  0
   17.0619   28.2683   66.9325 C   0  0  0  0  0  0
   17.1147   28.8312   68.2292 C   0  0  0  0  0  0
   17.0414   30.2257   68.3799 C   0  0  0  0  0  0
   16.9157   31.0522   67.2610 C   0  0  0  0  0  0
   16.8645   30.4902   65.9792 C   0  0  0  0  0  0
   16.9367   29.0962   65.8009 C   0  0  0  0  0  0
   17.2501   28.0140   69.4924 C   0  0  0  0  0  0
   15.8607   27.6954   70.4433 S   0  0  0  0  0  0
   18.4458   27.5386   69.8441 N   0  0  0  0  0  0
   19.5915   27.7331   68.9624 C   0  0  0  0  0  0
   18.6414   26.8044   71.0902 C   0  0  0  0  0  0
   19.3800   27.6542   72.1383 C   0  0  0  0  0  0
   18.8477   28.5636   72.7185 O   0  0  0  0  0  0
   20.6519   27.3073   72.3649 O   0  0  0  0  0  0
   21.0435   26.6140   71.8711 H   0  0  0  0  0  0
  1  2  1  0  0  0
  1  3  1  0  0  0
  1  4  1  0  0  0
  1  5  1  0  0  0
  5  6  2  0  0  0
  5 16  1  0  0  0
  6  7  1  0  0  0
  6  9  1  0  0  0
  7  8  1  0  0  0
  9 10  2  0  0  0
 10 11  1  0  0  0
 11 12  2  0  0  0
 11 16  1  0  0  0
 12 13  1  0  0  0
 12 17  1  0  0  0
 13 14  2  0  0  0
 14 15  1  0  0  0
 15 16  2  0  0  0
 17 18  2  0  0  0
 17 19  1  0  0  0
 19 20  1  0  0  0
 19 21  1  0  0  0
 21 22  1  0  0  0
 22 23  2  0  0  0
 22 24  1  0  0  0
 24 25  1  0  0  0
M  END
>  <CHROM.0>
55.47020795,-172.14017600,-84.44198212,13.50151682,52.42498669,-58.19084433
60.91203480,-88.88522058,157.31937636,-63.11303956,-62.62908200,-176.64239150
-172.41820256,58.67171592,175.67144356,-115.79589155

>  <CHROM.1>
3.55040251,107.81156497,-100.46080597,-106.13767835,73.42019289,2.65566747
17.46199751,28.31330254,67.09238236,2.10082444,1.15424669,-1.94928554

>  <FORMUL>
      TOL    C16 H14 F3 N1 O3 S1

>  <HET>
 TOL  A 320      24

>  <HETNAM>
     TOL TOLRESTAT

>  <Name>
TOL.pdb

>  <RI>
1.44506e+07

>  <Rbt.Current_Directory>
/home/malgorzata/Desktop/rDOCK_IFD/Wyniki/1_aldose_reductase/IFD

>  <Rbt.Executable>
rbdock ($Id: //depot/dev/client3/rdock/2013.1/src/exe/rbdock.cxx#4 $)

>  <Rbt.Library>
libRbt.so (2013.1, Build901 2013/11/27)

>  <Rbt.Parameter_File>
/home/malgorzata/Desktop/rDock_2013.1_src/data/scripts/dock.prm

>  <Rbt.Receptor>
cavity.prm

>  <SCORE>
-51.5047

>  <SCORE.INTER>
-15.463

>  <SCORE.INTER.CONST>
1

>  <SCORE.INTER.POLAR>
-1.41922

>  <SCORE.INTER.REPUL>
0

>  <SCORE.INTER.ROT>
5

>  <SCORE.INTER.VDW>
-21.0377

>  <SCORE.INTER.norm>
-0.644294

>  <SCORE.INTRA>
-4.71357

>  <SCORE.INTRA.DIHEDRAL>
4.19471

>  <SCORE.INTRA.DIHEDRAL.0>
16.9783

>  <SCORE.INTRA.POLAR>
0

>  <SCORE.INTRA.POLAR.0>
0

>  <SCORE.INTRA.REPUL>
0

>  <SCORE.INTRA.REPUL.0>
0

>  <SCORE.INTRA.VDW>
-6.81092

>  <SCORE.INTRA.VDW.0>
4.87734

>  <SCORE.INTRA.norm>
-0.196399

>  <SCORE.RESTR>
0

>  <SCORE.RESTR.CAVITY>
0

>  <SCORE.RESTR.norm>
0

>  <SCORE.SYSTEM>
-31.3281

>  <SCORE.SYSTEM.CONST>
0

>  <SCORE.SYSTEM.DIHEDRAL>
2.95476

>  <SCORE.SYSTEM.POLAR>
-8.6018

>  <SCORE.SYSTEM.REPUL>
0.363624

>  <SCORE.SYSTEM.VDW>
-5.37745

>  <SCORE.SYSTEM.norm>
-1.30534

>  <SCORE.heavy>
24

>  <SCORE.norm>
-2.14603

$$$$
TOL.pdb
  rDOCK(R)          3D
libRbt.so/2013.1/901 2013/11/27
 25 26  0  0  0  0  0  0  0  0999 V2000
   15.8982   30.3151   64.3526 C   0  0  0  0  0  0
   16.5772   31.4897   64.3679 F   0  0  0  0  0  0
   14.6503   30.5740   64.8256 F   0  0  0  0  0  0
   15.7654   29.9220   63.0578 F   0  0  0  0  0  0
   16.6197   29.2308   65.1821 C   0  0  0  0  0  0
   16.9457   27.9421   64.6850 C   0  0  0  0  0  0
   16.6273   27.6200   63.4444 O   0  0  0  0  0  0
   17.7583   27.4931   62.5984 C   0  0  0  0  0  0
   17.6042   27.0211   65.5289 C   0  0  0  0  0  0
   17.9375   27.3654   66.8438 C   0  0  0  0  0  0
   17.6133   28.6429   67.3416 C   0  0  0  0  0  0
   17.9543   28.9781   68.6729 C   0  0  0  0  0  0
   17.6320   30.2522   69.1682 C   0  0  0  0  0  0
   16.9788   31.1821   68.3561 C   0  0  0  0  0  0
   16.6439   30.8459   67.0384 C   0  0  0  0  0  0
   16.9562   29.5763   66.5178 C   0  0  0  0  0  0
   18.6605   28.0361   69.6194 C   0  0  0  0  0  0
   17.7735   27.2834   70.8775 S   0  0  0  0  0  0
   19.9614   27.7907   69.4555 N   0  0  0  0  0  0
   20.6684   28.3599   68.3135 C   0  0  0  0  0  0
   20.7038   26.9446   70.3844 C   0  0  0  0  0  0
   20.9224   25.5329   69.8137 C   0  0  0  0  0  0
   21.9751   25.1849   69.3470 O   0  0  0  0  0  0
   19.8640   24.7175   69.8793 O   0  0  0  0  0  0
   19.9297   23.8381   69.5627 H   0  0  0  0  0  0
  1  2  1  0  0  0
  1  3  1  0  0  0
  1  4  1  0  0  0
  1  5  1  0  0  0
  5  6  2  0  0  0
  5 16  1  0  0  0
  6  7  1  0  0  0
  6  9  1  0  0  0
  7  8  1  0  0  0
  9 10  2  0  0  0
 10 11  1  0  0  0
 11 12  2  0  0  0
 11 16  1  0  0  0
 12 13  1  0  0  0
 12 17  1  0  0  0
 13 14  2  0  0  0
 14 15  1  0  0  0
 15 16  2  0  0  0
 17 18  2  0  0  0
 17 19  1  0  0  0
 19 20  1  0  0  0
 19 21  1  0  0  0
 21 22  1  0  0  0
 22 23  2  0  0  0
 22 24  1  0  0  0
 24 25  1  0  0  0
M  END
>  <CHROM.0>
52.23040361,-172.79455217,-76.99655684,-61.13131961,173.78046873,-58.24253972
-179.92231902,21.81143276,162.87326387,-61.70684903,55.67880750,-53.94103756
-178.40093620,-55.29170047,-55.99651448,-95.43664822

>  <CHROM.1>
-127.50400065,110.51221810,-105.14393438,101.65079756,102.44139535,-179.02216931
17.89930809,28.38855186,67.14070136,2.55595561,0.92856611,-1.92928851

>  <FORMUL>
      TOL    C16 H14 F3 N1 O3 S1

>  <HET>
 TOL  A 320      24

>  <HETNAM>
     TOL TOLRESTAT

>  <Name>
TOL.pdb

>  <RI>
1.44506e+07

>  <Rbt.Current_Directory>
/home/malgorzata/Desktop/rDOCK_IFD/Wyniki/1_aldose_reductase/IFD

>  <Rbt.Executable>
rbdock ($Id: //depot/dev/client3/rdock/2013.1/src/exe/rbdock.cxx#4 $)

>  <Rbt.Library>
libRbt.so (2013.1, Build901 2013/11/27)

>  <Rbt.Parameter_File>
/home/malgorzata/Desktop/rDock_2013.1_src/data/scripts/dock.prm

>  <Rbt.Receptor>
cavity.prm

>  <SCORE>
-41.4473

>  <SCORE.INTER>
-9.80977

>  <SCORE.INTER.CONST>
1

>  <SCORE.INTER.POLAR>
-0.979796

>  <SCORE.INTER.REPUL>
0

>  <SCORE.INTER.ROT>
5

>  <SCORE.INTER.VDW>
-16.8785

>  <SCORE.INTER.norm>
-0.408741

>  <SCORE.INTRA>
-5.05172

>  <SCORE.INTRA.DIHEDRAL>
3.64036

>  <SCORE.INTRA.DIHEDRAL.0>
16.9783

>  <SCORE.INTRA.POLAR>
0

>  <SCORE.INTRA.POLAR.0>
0

>  <SCORE.INTRA.REPUL>
0

>  <SCORE.INTRA.REPUL.0>
0

>  <SCORE.INTRA.VDW>
-6.87189

>  <SCORE.INTRA.VDW.0>
4.87734

>  <SCORE.INTRA.norm>
-0.210488

>  <SCORE.RESTR>
0

>  <SCORE.RESTR.CAVITY>
0

>  <SCORE.RESTR.norm>
0

>  <SCORE.SYSTEM>
-26.5858

>  <SCORE.SYSTEM.CONST>
0

>  <SCORE.SYSTEM.DIHEDRAL>
6.01012

>  <SCORE.SYSTEM.POLAR>
-8.04633

>  <SCORE.SYSTEM.REPUL>
0.0661431

>  <SCORE.SYSTEM.VDW>
-2.56411

>  <SCORE.SYSTEM.norm>
-1.10774

>  <SCORE.heavy>
24

>  <SCORE.norm>
-1.72697

$$$$
