TOL.pdb
  rDOCK(R)          3D
libRbt.so/2013.1/901 2013/11/27
 25 26  0  0  0  0  0  0  0  0999 V2000
   23.0446   27.7808   71.4457 C   0  0  0  0  0  0
   23.8602   28.8353   71.1932 F   0  0  0  0  0  0
   23.8466   26.7088   71.6816 F   0  0  0  0  0  0
   22.3668   28.0384   72.5960 F   0  0  0  0  0  0
   22.0655   27.5275   70.2790 C   0  0  0  0  0  0
   22.2108   26.4731   69.3402 C   0  0  0  0  0  0
   23.2324   25.6424   69.4429 O   0  0  0  0  0  0
   22.8401   24.3230   69.7838 C   0  0  0  0  0  0
   21.2595   26.3311   68.3062 C   0  0  0  0  0  0
   20.1799   27.2151   68.1994 C   0  0  0  0  0  0
   20.0337   28.2646   69.1280 C   0  0  0  0  0  0
   18.9388   29.1522   69.0081 C   0  0  0  0  0  0
   18.7929   30.1975   69.9349 C   0  0  0  0  0  0
   19.7202   30.3626   70.9663 C   0  0  0  0  0  0
   20.8021   29.4807   71.0812 C   0  0  0  0  0  0
   20.9708   28.4250   70.1661 C   0  0  0  0  0  0
   17.8901   29.0478   67.9260 C   0  0  0  0  0  0
   18.3584   29.1783   66.2828 S   0  0  0  0  0  0
   16.6158   28.8408   68.2617 N   0  0  0  0  0  0
   16.2600   28.6266   69.6601 C   0  0  0  0  0  0
   15.5563   28.8029   67.2588 C   0  0  0  0  0  0
   15.6014   30.0361   66.3403 C   0  0  0  0  0  0
   16.1076   31.0726   66.6814 O   0  0  0  0  0  0
   15.0458   29.8737   65.1344 O   0  0  0  0  0  0
   14.6643   29.0502   64.9014 H   0  0  0  0  0  0
  1  2  1  0  0  0
  1  3  1  0  0  0
  1  4  1  0  0  0
  1  5  1  0  0  0
  5  6  2  0  0  0
  5 16  1  0  0  0
  6  7  1  0  0  0
  6  9  1  0  0  0
  7  8  1  0  0  0
  9 10  2  0  0  0
 10 11  1  0  0  0
 11 12  2  0  0  0
 11 16  1  0  0  0
 12 13  1  0  0  0
 12 17  1  0  0  0
 13 14  2  0  0  0
 14 15  1  0  0  0
 15 16  2  0  0  0
 17 18  2  0  0  0
 17 19  1  0  0  0
 19 20  1  0  0  0
 19 21  1  0  0  0
 21 22  1  0  0  0
 22 23  2  0  0  0
 22 24  1  0  0  0
 24 25  1  0  0  0
M  END
>  <CHROM.0>
167.11992397,-92.87287477,0.27464850,-179.88144535,-5.69907471,-78.67107599
-77.31533546,-59.07612316,60.97851464,-61.54190337,-69.57933044,-61.41326028
-60.50081437,122.82373840

>  <CHROM.1>
104.07123399,112.85902819,-60.62635151,-51.21474377,-23.80547295,0.04564337
19.82981083,28.36018594,69.08337833,0.16116611,-0.60818412,0.83986840

>  <FORMUL>
      TOL    C16 H14 F3 N1 O3 S1

>  <HET>
 TOL  A 320      24

>  <HETNAM>
     TOL TOLRESTAT

>  <Name>
TOL.pdb

>  <RI>
0

>  <Rbt.Current_Directory>
/home/malgorzata/Desktop/rDOCK_IFD/Wyniki/1_aldose_reductase/IFD

>  <Rbt.Executable>
rbdock ($Id: //depot/dev/client3/rdock/2013.1/src/exe/rbdock.cxx#4 $)

>  <Rbt.Library>
libRbt.so (2013.1, Build901 2013/11/27)

>  <Rbt.Parameter_File>
/home/malgorzata/Desktop/rDock_2013.1_src/data/scripts/dock.prm

>  <Rbt.Receptor>
cavity.prm

>  <SCORE>
-33.2027

>  <SCORE.INTER>
-21.2179

>  <SCORE.INTER.CONST>
1

>  <SCORE.INTER.POLAR>
-0.971954

>  <SCORE.INTER.REPUL>
0

>  <SCORE.INTER.ROT>
5

>  <SCORE.INTER.VDW>
-28.3133

>  <SCORE.INTER.norm>
-0.884081

>  <SCORE.INTRA>
-3.51476

>  <SCORE.INTRA.DIHEDRAL>
1.37623

>  <SCORE.INTRA.DIHEDRAL.0>
16.9783

>  <SCORE.INTRA.POLAR>
0

>  <SCORE.INTRA.POLAR.0>
0

>  <SCORE.INTRA.REPUL>
0

>  <SCORE.INTRA.REPUL.0>
0

>  <SCORE.INTRA.VDW>
-4.20287

>  <SCORE.INTRA.VDW.0>
4.87734

>  <SCORE.INTRA.norm>
-0.146448

>  <SCORE.RESTR>
0

>  <SCORE.RESTR.CAVITY>
0

>  <SCORE.RESTR.norm>
0

>  <SCORE.SYSTEM>
-8.46999

>  <SCORE.SYSTEM.CONST>
0

>  <SCORE.SYSTEM.DIHEDRAL>
4.13144

>  <SCORE.SYSTEM.POLAR>
-1.59682

>  <SCORE.SYSTEM.REPUL>
0.0303091

>  <SCORE.SYSTEM.VDW>
-5.25807

>  <SCORE.SYSTEM.norm>
-0.352916

>  <SCORE.heavy>
24

>  <SCORE.norm>
-1.38345

$$$$
TOL.pdb
  rDOCK(R)          3D
libRbt.so/2013.1/901 2013/11/27
 25 26  0  0  0  0  0  0  0  0999 V2000
   17.0751   30.3163   64.5462 C   0  0  0  0  0  0
   17.2281   30.6313   63.2354 F   0  0  0  0  0  0
   16.6680   31.4482   65.1795 F   0  0  0  0  0  0
   16.0648   29.4119   64.6470 F   0  0  0  0  0  0
   18.3784   29.7500   65.1504 C   0  0  0  0  0  0
   19.6112   29.6857   64.4504 C   0  0  0  0  0  0
   19.6815   30.1281   63.2079 O   0  0  0  0  0  0
   20.3594   31.3689   63.1003 C   0  0  0  0  0  0
   20.7455   29.1449   65.0947 C   0  0  0  0  0  0
   20.6661   28.6748   66.4104 C   0  0  0  0  0  0
   19.4434   28.7347   67.1078 C   0  0  0  0  0  0
   19.3760   28.2548   68.4368 C   0  0  0  0  0  0
   18.1570   28.3159   69.1318 C   0  0  0  0  0  0
   17.0188   28.8440   68.5181 C   0  0  0  0  0  0
   17.0907   29.3185   67.2024 C   0  0  0  0  0  0
   18.3000   29.2692   66.4843 C   0  0  0  0  0  0
   20.5554   27.6692   69.1769 C   0  0  0  0  0  0
   21.2996   28.5738   70.4274 S   0  0  0  0  0  0
   20.9935   26.4502   68.8581 N   0  0  0  0  0  0
   20.2764   25.6588   67.8644 C   0  0  0  0  0  0
   22.1716   25.8695   69.4942 C   0  0  0  0  0  0
   23.3013   25.6256   68.4790 C   0  0  0  0  0  0
   23.8296   24.5525   68.3517 O   0  0  0  0  0  0
   23.6501   26.6869   67.7432 O   0  0  0  0  0  0
   24.3305   26.6103   67.1035 H   0  0  0  0  0  0
  1  2  1  0  0  0
  1  3  1  0  0  0
  1  4  1  0  0  0
  1  5  1  0  0  0
  5  6  2  0  0  0
  5 16  1  0  0  0
  6  7  1  0  0  0
  6  9  1  0  0  0
  7  8  1  0  0  0
  9 10  2  0  0  0
 10 11  1  0  0  0
 11 12  2  0  0  0
 11 16  1  0  0  0
 12 13  1  0  0  0
 12 17  1  0  0  0
 13 14  2  0  0  0
 14 15  1  0  0  0
 15 16  2  0  0  0
 17 18  2  0  0  0
 17 19  1  0  0  0
 19 20  1  0  0  0
 19 21  1  0  0  0
 21 22  1  0  0  0
 22 23  2  0  0  0
 22 24  1  0  0  0
 24 25  1  0  0  0
M  END
>  <CHROM.0>
166.31028343,-99.42480241,-179.05593333,179.88924636,-7.56391032,-77.98992728
-77.52651827,-59.07612316,178.89237527,-61.54190337,-68.18249124,-61.41326028
-60.50081437,-103.77878567

>  <CHROM.1>
5.41108829,105.96157232,107.10073783,-116.28911543,-126.42561167,-179.89448013
19.70327315,28.56174216,66.82939167,2.28746030,0.42390041,-1.20461567

>  <FORMUL>
      TOL    C16 H14 F3 N1 O3 S1

>  <HET>
 TOL  A 320      24

>  <HETNAM>
     TOL TOLRESTAT

>  <Name>
TOL.pdb

>  <RI>
0

>  <Rbt.Current_Directory>
/home/malgorzata/Desktop/rDOCK_IFD/Wyniki/1_aldose_reductase/IFD

>  <Rbt.Executable>
rbdock ($Id: //depot/dev/client3/rdock/2013.1/src/exe/rbdock.cxx#4 $)

>  <Rbt.Library>
libRbt.so (2013.1, Build901 2013/11/27)

>  <Rbt.Parameter_File>
/home/malgorzata/Desktop/rDock_2013.1_src/data/scripts/dock.prm

>  <Rbt.Receptor>
cavity.prm

>  <SCORE>
-26.3437

>  <SCORE.INTER>
-13.1278

>  <SCORE.INTER.CONST>
1

>  <SCORE.INTER.POLAR>
0

>  <SCORE.INTER.REPUL>
0

>  <SCORE.INTER.ROT>
5

>  <SCORE.INTER.VDW>
-23.5278

>  <SCORE.INTER.norm>
-0.546991

>  <SCORE.INTRA>
-5.21867

>  <SCORE.INTRA.DIHEDRAL>
3.64019

>  <SCORE.INTRA.DIHEDRAL.0>
16.9783

>  <SCORE.INTRA.POLAR>
0

>  <SCORE.INTRA.POLAR.0>
0

>  <SCORE.INTRA.REPUL>
0

>  <SCORE.INTRA.REPUL.0>
0

>  <SCORE.INTRA.VDW>
-7.03876

>  <SCORE.INTRA.VDW.0>
4.87734

>  <SCORE.INTRA.norm>
-0.217445

>  <SCORE.RESTR>
0

>  <SCORE.RESTR.CAVITY>
0

>  <SCORE.RESTR.norm>
0

>  <SCORE.SYSTEM>
-7.99728

>  <SCORE.SYSTEM.CONST>
0

>  <SCORE.SYSTEM.DIHEDRAL>
4.03688

>  <SCORE.SYSTEM.POLAR>
-1.51185

>  <SCORE.SYSTEM.REPUL>
0.0287104

>  <SCORE.SYSTEM.VDW>
-5.01896

>  <SCORE.SYSTEM.norm>
-0.33322

>  <SCORE.heavy>
24

>  <SCORE.norm>
-1.09766

$$$$
TOL.pdb
  rDOCK(R)          3D
libRbt.so/2013.1/901 2013/11/27
 25 26  0  0  0  0  0  0  0  0999 V2000
   17.5524   30.7217   65.0145 C   0  0  0  0  0  0
   17.3477   31.6413   65.9909 F   0  0  0  0  0  0
   16.5029   29.8587   65.0585 F   0  0  0  0  0  0
   17.4990   31.3611   63.8157 F   0  0  0  0  0  0
   18.9057   29.9990   65.1891 C   0  0  0  0  0  0
   19.9493   30.0328   64.2280 C   0  0  0  0  0  0
   19.7852   30.7133   63.1081 O   0  0  0  0  0  0
   20.7043   31.7846   62.9724 C   0  0  0  0  0  0
   21.1488   29.3329   64.4841 C   0  0  0  0  0  0
   21.3177   28.6107   65.6708 C   0  0  0  0  0  0
   20.2830   28.5728   66.6263 C   0  0  0  0  0  0
   20.4656   27.8380   67.8211 C   0  0  0  0  0  0
   19.4342   27.8016   68.7737 C   0  0  0  0  0  0
   18.2364   28.4829   68.5454 C   0  0  0  0  0  0
   18.0606   29.2097   67.3612 C   0  0  0  0  0  0
   19.0786   29.2627   66.3910 C   0  0  0  0  0  0
   21.7262   27.0734   68.1500 C   0  0  0  0  0  0
   22.6960   27.5748   69.4707 S   0  0  0  0  0  0
   22.0609   26.0095   67.4182 N   0  0  0  0  0  0
   21.1635   25.5402   66.3682 C   0  0  0  0  0  0
   23.3035   25.2804   67.6510 C   0  0  0  0  0  0
   23.1137   24.1509   68.6779 C   0  0  0  0  0  0
   22.4465   23.1773   68.4456 O   0  0  0  0  0  0
   23.7475   24.3228   69.8433 O   0  0  0  0  0  0
   23.7246   23.6481   70.4930 H   0  0  0  0  0  0
  1  2  1  0  0  0
  1  3  1  0  0  0
  1  4  1  0  0  0
  1  5  1  0  0  0
  5  6  2  0  0  0
  5 16  1  0  0  0
  6  7  1  0  0  0
  6  9  1  0  0  0
  7  8  1  0  0  0
  9 10  2  0  0  0
 10 11  1  0  0  0
 11 12  2  0  0  0
 11 16  1  0  0  0
 12 13  1  0  0  0
 12 17  1  0  0  0
 13 14  2  0  0  0
 14 15  1  0  0  0
 15 16  2  0  0  0
 17 18  2  0  0  0
 17 19  1  0  0  0
 19 20  1  0  0  0
 19 21  1  0  0  0
 21 22  1  0  0  0
 22 23  2  0  0  0
 22 24  1  0  0  0
 24 25  1  0  0  0
M  END
>  <CHROM.0>
-103.32955117,-92.94507391,-176.93570088,62.32099063,-147.96489332,-75.99336287
170.68481494,-59.07612316,60.43520408,-61.54190337,-69.20597713,-61.41326028
-60.50081437,121.03272965

>  <CHROM.1>
-119.23927892,117.25616909,114.39405958,89.65545443,67.94017304,-175.80505223
20.31970954,28.28051735,66.63188196,2.23160232,0.50923297,-1.00189915

>  <FORMUL>
      TOL    C16 H14 F3 N1 O3 S1

>  <HET>
 TOL  A 320      24

>  <HETNAM>
     TOL TOLRESTAT

>  <Name>
TOL.pdb

>  <RI>
0

>  <Rbt.Current_Directory>
/home/malgorzata/Desktop/rDOCK_IFD/Wyniki/1_aldose_reductase/IFD

>  <Rbt.Executable>
rbdock ($Id: //depot/dev/client3/rdock/2013.1/src/exe/rbdock.cxx#4 $)

>  <Rbt.Library>
libRbt.so (2013.1, Build901 2013/11/27)

>  <Rbt.Parameter_File>
/home/malgorzata/Desktop/rDock_2013.1_src/data/scripts/dock.prm

>  <Rbt.Receptor>
cavity.prm

>  <SCORE>
-29.5519

>  <SCORE.INTER>
-16.5699

>  <SCORE.INTER.CONST>
1

>  <SCORE.INTER.POLAR>
-1.06066

>  <SCORE.INTER.REPUL>
0

>  <SCORE.INTER.ROT>
5

>  <SCORE.INTER.VDW>
-23.3637

>  <SCORE.INTER.norm>
-0.690414

>  <SCORE.INTRA>
-5.17617

>  <SCORE.INTRA.DIHEDRAL>
2.11798

>  <SCORE.INTRA.DIHEDRAL.0>
16.9783

>  <SCORE.INTRA.POLAR>
0

>  <SCORE.INTRA.POLAR.0>
0

>  <SCORE.INTRA.REPUL>
0

>  <SCORE.INTRA.REPUL.0>
0

>  <SCORE.INTRA.VDW>
-6.23516

>  <SCORE.INTRA.VDW.0>
4.87734

>  <SCORE.INTRA.norm>
-0.215674

>  <SCORE.RESTR>
0

>  <SCORE.RESTR.CAVITY>
0

>  <SCORE.RESTR.norm>
0

>  <SCORE.SYSTEM>
-7.80583

>  <SCORE.SYSTEM.CONST>
0

>  <SCORE.SYSTEM.DIHEDRAL>
10.2074

>  <SCORE.SYSTEM.POLAR>
-2.2311

>  <SCORE.SYSTEM.REPUL>
0.000825097

>  <SCORE.SYSTEM.VDW>
-5.32792

>  <SCORE.SYSTEM.norm>
-0.325243

>  <SCORE.heavy>
24

>  <SCORE.norm>
-1.23133

$$$$
TOL.pdb
  rDOCK(R)          3D
libRbt.so/2013.1/901 2013/11/27
 25 26  0  0  0  0  0  0  0  0999 V2000
   22.6014   26.9882   69.7875 C   0  0  0  0  0  0
   23.7186   27.4368   69.1618 F   0  0  0  0  0  0
   22.4361   25.6903   69.4184 F   0  0  0  0  0  0
   22.8351   27.0001   71.1269 F   0  0  0  0  0  0
   21.3696   27.8518   69.4395 C   0  0  0  0  0  0
   20.6344   28.6008   70.3947 C   0  0  0  0  0  0
   20.9992   28.5794   71.6639 O   0  0  0  0  0  0
   21.4909   29.8293   72.1190 C   0  0  0  0  0  0
   19.5188   29.3565   69.9718 C   0  0  0  0  0  0
   19.1339   29.3743   68.6264 C   0  0  0  0  0  0
   19.8598   28.6300   67.6756 C   0  0  0  0  0  0
   19.4595   28.6553   66.3191 C   0  0  0  0  0  0
   20.1844   27.9141   65.3716 C   0  0  0  0  0  0
   21.2906   27.1562   65.7625 C   0  0  0  0  0  0
   21.6834   27.1349   67.1066 C   0  0  0  0  0  0
   20.9747   27.8692   68.0756 C   0  0  0  0  0  0
   18.2781   29.4463   65.8088 C   0  0  0  0  0  0
   16.7404   29.2263   66.5322 S   0  0  0  0  0  0
   18.4492   30.3161   64.8121 N   0  0  0  0  0  0
   19.7873   30.5626   64.2863 C   0  0  0  0  0  0
   17.3275   31.0518   64.2370 C   0  0  0  0  0  0
   16.5376   30.1897   63.2374 C   0  0  0  0  0  0
   17.0805   29.5083   62.4080 O   0  0  0  0  0  0
   15.2066   30.2447   63.3591 O   0  0  0  0  0  0
   14.8162   30.8382   63.9701 H   0  0  0  0  0  0
  1  2  1  0  0  0
  1  3  1  0  0  0
  1  4  1  0  0  0
  1  5  1  0  0  0
  5  6  2  0  0  0
  5 16  1  0  0  0
  6  7  1  0  0  0
  6  9  1  0  0  0
  7  8  1  0  0  0
  9 10  2  0  0  0
 10 11  1  0  0  0
 11 12  2  0  0  0
 11 16  1  0  0  0
 12 13  1  0  0  0
 12 17  1  0  0  0
 13 14  2  0  0  0
 14 15  1  0  0  0
 15 16  2  0  0  0
 17 18  2  0  0  0
 17 19  1  0  0  0
 19 20  1  0  0  0
 19 21  1  0  0  0
 21 22  1  0  0  0
 22 23  2  0  0  0
 22 24  1  0  0  0
 24 25  1  0  0  0
M  END
>  <CHROM.0>
166.30247643,-93.78059246,-174.72631291,-67.34475069,-148.41380987,-160.56942004
-78.46883074,-59.07612316,-51.99491198,-61.54190337,-171.41972955,-61.41326028
-60.50081437,-110.77211234

>  <CHROM.1>
-117.58104419,112.68161815,-53.97312755,-79.89851293,-44.85966702,5.26717900
19.81477246,28.67779056,67.38582621,-0.75952262,0.57998211,-1.73102954

>  <FORMUL>
      TOL    C16 H14 F3 N1 O3 S1

>  <HET>
 TOL  A 320      24

>  <HETNAM>
     TOL TOLRESTAT

>  <Name>
TOL.pdb

>  <RI>
0

>  <Rbt.Current_Directory>
/home/malgorzata/Desktop/rDOCK_IFD/Wyniki/1_aldose_reductase/IFD

>  <Rbt.Executable>
rbdock ($Id: //depot/dev/client3/rdock/2013.1/src/exe/rbdock.cxx#4 $)

>  <Rbt.Library>
libRbt.so (2013.1, Build901 2013/11/27)

>  <Rbt.Parameter_File>
/home/malgorzata/Desktop/rDock_2013.1_src/data/scripts/dock.prm

>  <Rbt.Receptor>
cavity.prm

>  <SCORE>
-27.9057

>  <SCORE.INTER>
-16.0025

>  <SCORE.INTER.CONST>
1

>  <SCORE.INTER.POLAR>
-0.947917

>  <SCORE.INTER.REPUL>
0.0209498

>  <SCORE.INTER.ROT>
5

>  <SCORE.INTER.VDW>
-23.2843

>  <SCORE.INTER.norm>
-0.66677

>  <SCORE.INTRA>
-4.71623

>  <SCORE.INTRA.DIHEDRAL>
0.148816

>  <SCORE.INTRA.DIHEDRAL.0>
16.9783

>  <SCORE.INTRA.POLAR>
0

>  <SCORE.INTRA.POLAR.0>
0

>  <SCORE.INTRA.REPUL>
0

>  <SCORE.INTRA.REPUL.0>
0

>  <SCORE.INTRA.VDW>
-4.79064

>  <SCORE.INTRA.VDW.0>
4.87734

>  <SCORE.INTRA.norm>
-0.196509

>  <SCORE.RESTR>
0

>  <SCORE.RESTR.CAVITY>
0

>  <SCORE.RESTR.norm>
0

>  <SCORE.SYSTEM>
-7.18701

>  <SCORE.SYSTEM.CONST>
0

>  <SCORE.SYSTEM.DIHEDRAL>
6.18038

>  <SCORE.SYSTEM.POLAR>
-2.22809

>  <SCORE.SYSTEM.REPUL>
0.175306

>  <SCORE.SYSTEM.VDW>
-3.57822

>  <SCORE.SYSTEM.norm>
-0.299459

>  <SCORE.heavy>
24

>  <SCORE.norm>
-1.16274

$$$$
TOL.pdb
  rDOCK(R)          3D
libRbt.so/2013.1/901 2013/11/27
 25 26  0  0  0  0  0  0  0  0999 V2000
   22.8843   27.2806   69.5888 C   0  0  0  0  0  0
   23.9468   27.8794   68.9942 F   0  0  0  0  0  0
   22.8338   26.0067   69.1170 F   0  0  0  0  0  0
   23.1346   27.2070   70.9233 F   0  0  0  0  0  0
   21.5737   28.0514   69.3199 C   0  0  0  0  0  0
   20.7805   28.6410   70.3383 C   0  0  0  0  0  0
   21.1577   28.5428   71.6002 O   0  0  0  0  0  0
   21.5776   29.7808   72.1497 C   0  0  0  0  0  0
   19.5950   29.3223   69.9850 C   0  0  0  0  0  0
   19.1974   29.4217   68.6469 C   0  0  0  0  0  0
   19.9810   28.8356   67.6333 C   0  0  0  0  0  0
   19.5673   28.9420   66.2848 C   0  0  0  0  0  0
   20.3495   28.3585   65.2747 C   0  0  0  0  0  0
   21.5256   27.6769   65.5959 C   0  0  0  0  0  0
   21.9314   27.5749   66.9324 C   0  0  0  0  0  0
   21.1660   28.1511   67.9632 C   0  0  0  0  0  0
   18.3121   29.6598   65.8476 C   0  0  0  0  0  0
   16.8094   29.2361   66.5537 S   0  0  0  0  0  0
   18.3909   30.6237   64.9289 N   0  0  0  0  0  0
   19.6946   31.0381   64.4226 C   0  0  0  0  0  0
   17.1996   31.2976   64.4223 C   0  0  0  0  0  0
   16.2809   30.3275   63.6600 C   0  0  0  0  0  0
   15.2096   29.9872   64.0884 O   0  0  0  0  0  0
   16.7523   29.8947   62.4854 O   0  0  0  0  0  0
   16.2518   29.2898   61.9739 H   0  0  0  0  0  0
  1  2  1  0  0  0
  1  3  1  0  0  0
  1  4  1  0  0  0
  1  5  1  0  0  0
  5  6  2  0  0  0
  5 16  1  0  0  0
  6  7  1  0  0  0
  6  9  1  0  0  0
  7  8  1  0  0  0
  9 10  2  0  0  0
 10 11  1  0  0  0
 11 12  2  0  0  0
 11 16  1  0  0  0
 12 13  1  0  0  0
 12 17  1  0  0  0
 13 14  2  0  0  0
 14 15  1  0  0  0
 15 16  2  0  0  0
 17 18  2  0  0  0
 17 19  1  0  0  0
 19 20  1  0  0  0
 19 21  1  0  0  0
 21 22  1  0  0  0
 22 23  2  0  0  0
 22 24  1  0  0  0
 24 25  1  0  0  0
M  END
>  <CHROM.0>
-104.14098259,-93.11784946,1.50394098,63.92699010,-150.38366411,-77.83482835
-77.25811748,-59.07612316,60.79886537,-61.54190337,-68.94101582,-61.41326028
-60.50081437,-89.40649146

>  <CHROM.1>
-118.11339547,110.65645740,-53.80466183,-64.33275945,110.56271044,178.95135837
19.91579724,28.87684352,67.38035060,-0.75469744,0.46969875,-1.64467182

>  <FORMUL>
      TOL    C16 H14 F3 N1 O3 S1

>  <HET>
 TOL  A 320      24

>  <HETNAM>
     TOL TOLRESTAT

>  <Name>
TOL.pdb

>  <RI>
0

>  <Rbt.Current_Directory>
/home/malgorzata/Desktop/rDOCK_IFD/Wyniki/1_aldose_reductase/IFD

>  <Rbt.Executable>
rbdock ($Id: //depot/dev/client3/rdock/2013.1/src/exe/rbdock.cxx#4 $)

>  <Rbt.Library>
libRbt.so (2013.1, Build901 2013/11/27)

>  <Rbt.Parameter_File>
/home/malgorzata/Desktop/rDock_2013.1_src/data/scripts/dock.prm

>  <Rbt.Receptor>
cavity.prm

>  <SCORE>
-29.5913

>  <SCORE.INTER>
-15.0098

>  <SCORE.INTER.CONST>
1

>  <SCORE.INTER.POLAR>
0

>  <SCORE.INTER.REPUL>
0.00216369

>  <SCORE.INTER.ROT>
5

>  <SCORE.INTER.VDW>
-25.4206

>  <SCORE.INTER.norm>
-0.625407

>  <SCORE.INTRA>
-4.92138

>  <SCORE.INTRA.DIHEDRAL>
0.0912755

>  <SCORE.INTRA.DIHEDRAL.0>
16.9783

>  <SCORE.INTRA.POLAR>
0

>  <SCORE.INTRA.POLAR.0>
0

>  <SCORE.INTRA.REPUL>
0

>  <SCORE.INTRA.REPUL.0>
0

>  <SCORE.INTRA.VDW>
-4.96701

>  <SCORE.INTRA.VDW.0>
4.87734

>  <SCORE.INTRA.norm>
-0.205057

>  <SCORE.RESTR>
0

>  <SCORE.RESTR.CAVITY>
0

>  <SCORE.RESTR.norm>
0

>  <SCORE.SYSTEM>
-9.66018

>  <SCORE.SYSTEM.CONST>
0

>  <SCORE.SYSTEM.DIHEDRAL>
10.4227

>  <SCORE.SYSTEM.POLAR>
-2.7919

>  <SCORE.SYSTEM.REPUL>
0.00135566

>  <SCORE.SYSTEM.VDW>
-5.38583

>  <SCORE.SYSTEM.norm>
-0.402508

>  <SCORE.heavy>
24

>  <SCORE.norm>
-1.23297

$$$$
TOL.pdb
  rDOCK(R)          3D
libRbt.so/2013.1/901 2013/11/27
 25 26  0  0  0  0  0  0  0  0999 V2000
   23.2531   27.9016   71.6897 C   0  0  0  0  0  0
   22.6161   28.1446   72.8626 F   0  0  0  0  0  0
   24.0546   28.9723   71.4463 F   0  0  0  0  0  0
   24.0626   26.8233   71.8653 F   0  0  0  0  0  0
   22.2524   27.6527   70.5404 C   0  0  0  0  0  0
   22.3842   26.6067   69.5904 C   0  0  0  0  0  0
   23.4116   25.7802   69.6662 O   0  0  0  0  0  0
   23.0257   24.4408   69.9272 C   0  0  0  0  0  0
   21.4134   26.4683   68.5742 C   0  0  0  0  0  0
   20.3277   27.3478   68.4958 C   0  0  0  0  0  0
   20.1948   28.3890   69.4356 C   0  0  0  0  0  0
   19.0936   29.2722   69.3445 C   0  0  0  0  0  0
   18.9610   30.3093   70.2824 C   0  0  0  0  0  0
   19.9077   30.4707   71.2967 C   0  0  0  0  0  0
   20.9958   29.5933   71.3831 C   0  0  0  0  0  0
   21.1514   28.5457   70.4564 C   0  0  0  0  0  0
   18.0243   29.1713   68.2824 C   0  0  0  0  0  0
   16.4373   28.7013   68.7258 S   0  0  0  0  0  0
   18.3246   29.4631   67.0159 N   0  0  0  0  0  0
   19.6537   29.9633   66.6825 C   0  0  0  0  0  0
   17.3465   29.3132   65.9431 C   0  0  0  0  0  0
   16.7010   30.6596   65.5730 C   0  0  0  0  0  0
   16.4820   31.5133   66.3916 O   0  0  0  0  0  0
   16.4073   30.8179   64.2776 O   0  0  0  0  0  0
   15.9572   31.5878   63.9899 H   0  0  0  0  0  0
  1  2  1  0  0  0
  1  3  1  0  0  0
  1  4  1  0  0  0
  1  5  1  0  0  0
  5  6  2  0  0  0
  5 16  1  0  0  0
  6  7  1  0  0  0
  6  9  1  0  0  0
  7  8  1  0  0  0
  9 10  2  0  0  0
 10 11  1  0  0  0
 11 12  2  0  0  0
 11 16  1  0  0  0
 12 13  1  0  0  0
 12 17  1  0  0  0
 13 14  2  0  0  0
 14 15  1  0  0  0
 15 16  2  0  0  0
 17 18  2  0  0  0
 17 19  1  0  0  0
 19 20  1  0  0  0
 19 21  1  0  0  0
 21 22  1  0  0  0
 22 23  2  0  0  0
 22 24  1  0  0  0
 24 25  1  0  0  0
M  END
>  <CHROM.0>
-103.73297468,-96.61656347,3.49049340,-60.02233317,-7.84083852,-156.89742764
-73.24621144,-59.07612316,62.06193456,-61.54190337,-68.58236388,-61.41326028
-60.50081437,123.44734819

>  <CHROM.1>
-135.34529013,116.31406743,111.05030579,99.62157388,-34.53827382,175.65107689
20.17804436,28.58945027,69.17557563,0.23351432,-0.70056942,0.91377231

>  <FORMUL>
      TOL    C16 H14 F3 N1 O3 S1

>  <HET>
 TOL  A 320      24

>  <HETNAM>
     TOL TOLRESTAT

>  <Name>
TOL.pdb

>  <RI>
0

>  <Rbt.Current_Directory>
/home/malgorzata/Desktop/rDOCK_IFD/Wyniki/1_aldose_reductase/IFD

>  <Rbt.Executable>
rbdock ($Id: //depot/dev/client3/rdock/2013.1/src/exe/rbdock.cxx#4 $)

>  <Rbt.Library>
libRbt.so (2013.1, Build901 2013/11/27)

>  <Rbt.Parameter_File>
/home/malgorzata/Desktop/rDock_2013.1_src/data/scripts/dock.prm

>  <Rbt.Receptor>
cavity.prm

>  <SCORE>
-30.7964

>  <SCORE.INTER>
-18.9719

>  <SCORE.INTER.CONST>
1

>  <SCORE.INTER.POLAR>
-0.297135

>  <SCORE.INTER.REPUL>
0

>  <SCORE.INTER.ROT>
5

>  <SCORE.INTER.VDW>
-28.3617

>  <SCORE.INTER.norm>
-0.790497

>  <SCORE.INTRA>
-4.65843

>  <SCORE.INTRA.DIHEDRAL>
2.73923

>  <SCORE.INTRA.DIHEDRAL.0>
16.9783

>  <SCORE.INTRA.POLAR>
0

>  <SCORE.INTRA.POLAR.0>
0

>  <SCORE.INTRA.REPUL>
0

>  <SCORE.INTRA.REPUL.0>
0

>  <SCORE.INTRA.VDW>
-6.02805

>  <SCORE.INTRA.VDW.0>
4.87734

>  <SCORE.INTRA.norm>
-0.194101

>  <SCORE.RESTR>
0

>  <SCORE.RESTR.CAVITY>
0

>  <SCORE.RESTR.norm>
0

>  <SCORE.SYSTEM>
-7.16604

>  <SCORE.SYSTEM.CONST>
0

>  <SCORE.SYSTEM.DIHEDRAL>
10.0414

>  <SCORE.SYSTEM.POLAR>
-2.21122

>  <SCORE.SYSTEM.REPUL>
0.0264702

>  <SCORE.SYSTEM.VDW>
-4.80093

>  <SCORE.SYSTEM.norm>
-0.298585

>  <SCORE.heavy>
24

>  <SCORE.norm>
-1.28318

$$$$
TOL.pdb
  rDOCK(R)          3D
libRbt.so/2013.1/901 2013/11/27
 25 26  0  0  0  0  0  0  0  0999 V2000
   22.9675   24.9610   69.4909 C   0  0  0  0  0  0
   24.0488   24.8362   68.6810 F   0  0  0  0  0  0
   22.1804   23.8750   69.2690 F   0  0  0  0  0  0
   23.3961   24.8921   70.7795 F   0  0  0  0  0  0
   22.2153   26.2849   69.2346 C   0  0  0  0  0  0
   21.9935   27.2729   70.2289 C   0  0  0  0  0  0
   22.4442   27.0793   71.4552 O   0  0  0  0  0  0
   23.5290   27.9305   71.7864 C   0  0  0  0  0  0
   21.2891   28.4492   69.8907 C   0  0  0  0  0  0
   20.8108   28.6493   68.5908 C   0  0  0  0  0  0
   21.0269   27.6696   67.6016 C   0  0  0  0  0  0
   20.5371   27.8832   66.2919 C   0  0  0  0  0  0
   20.7539   26.9067   65.3060 C   0  0  0  0  0  0
   21.4456   25.7328   65.6134 C   0  0  0  0  0  0
   21.9293   25.5262   66.9114 C   0  0  0  0  0  0
   21.7260   26.4891   67.9173 C   0  0  0  0  0  0
   19.7804   29.1213   65.8720 C   0  0  0  0  0  0
   18.2465   29.4467   66.5630 S   0  0  0  0  0  0
   20.3214   29.9528   64.9802 N   0  0  0  0  0  0
   21.6728   29.7092   64.4881 C   0  0  0  0  0  0
   19.6011   31.1236   64.4898 C   0  0  0  0  0  0
   19.8222   32.3459   65.3973 C   0  0  0  0  0  0
   20.7284   32.4042   66.1862 O   0  0  0  0  0  0
   18.9421   33.3414   65.2432 O   0  0  0  0  0  0
   18.2302   33.2482   64.6412 H   0  0  0  0  0  0
  1  2  1  0  0  0
  1  3  1  0  0  0
  1  4  1  0  0  0
  1  5  1  0  0  0
  5  6  2  0  0  0
  5 16  1  0  0  0
  6  7  1  0  0  0
  6  9  1  0  0  0
  7  8  1  0  0  0
  9 10  2  0  0  0
 10 11  1  0  0  0
 11 12  2  0  0  0
 11 16  1  0  0  0
 12 13  1  0  0  0
 12 17  1  0  0  0
 13 14  2  0  0  0
 14 15  1  0  0  0
 15 16  2  0  0  0
 17 18  2  0  0  0
 17 19  1  0  0  0
 19 20  1  0  0  0
 19 21  1  0  0  0
 21 22  1  0  0  0
 22 23  2  0  0  0
 22 24  1  0  0  0
 24 25  1  0  0  0
M  END
>  <CHROM.0>
166.02518524,-98.84102856,-178.29276788,69.74560998,-148.39817831,-78.63103226
-71.82898089,-59.07612316,61.41743626,-61.54190337,61.78395360,-61.41326028
-60.50081437,127.62301489

>  <CHROM.1>
-121.35814057,109.64183547,-64.87177424,87.54166440,17.51390349,2.60173442
21.22524892,28.01632306,67.61808545,0.12781585,1.14083142,-2.38049914

>  <FORMUL>
      TOL    C16 H14 F3 N1 O3 S1

>  <HET>
 TOL  A 320      24

>  <HETNAM>
     TOL TOLRESTAT

>  <Name>
TOL.pdb

>  <RI>
0

>  <Rbt.Current_Directory>
/home/malgorzata/Desktop/rDOCK_IFD/Wyniki/1_aldose_reductase/IFD

>  <Rbt.Executable>
rbdock ($Id: //depot/dev/client3/rdock/2013.1/src/exe/rbdock.cxx#4 $)

>  <Rbt.Library>
libRbt.so (2013.1, Build901 2013/11/27)

>  <Rbt.Parameter_File>
/home/malgorzata/Desktop/rDock_2013.1_src/data/scripts/dock.prm

>  <Rbt.Receptor>
cavity.prm

>  <SCORE>
-30.2866

>  <SCORE.INTER>
-15.0921

>  <SCORE.INTER.CONST>
1

>  <SCORE.INTER.POLAR>
-0.768843

>  <SCORE.INTER.REPUL>
0.00406419

>  <SCORE.INTER.ROT>
5

>  <SCORE.INTER.VDW>
-22.8983

>  <SCORE.INTER.norm>
-0.628836

>  <SCORE.INTRA>
-4.90446

>  <SCORE.INTRA.DIHEDRAL>
2.37605

>  <SCORE.INTRA.DIHEDRAL.0>
16.9783

>  <SCORE.INTRA.POLAR>
0

>  <SCORE.INTRA.POLAR.0>
0

>  <SCORE.INTRA.REPUL>
0

>  <SCORE.INTRA.REPUL.0>
0

>  <SCORE.INTRA.VDW>
-6.09248

>  <SCORE.INTRA.VDW.0>
4.87734

>  <SCORE.INTRA.norm>
-0.204352

>  <SCORE.RESTR>
0

>  <SCORE.RESTR.CAVITY>
0

>  <SCORE.RESTR.norm>
0

>  <SCORE.SYSTEM>
-10.29

>  <SCORE.SYSTEM.CONST>
0

>  <SCORE.SYSTEM.DIHEDRAL>
5.60729

>  <SCORE.SYSTEM.POLAR>
-2.31105

>  <SCORE.SYSTEM.VDW>
-5.23612

>  <SCORE.SYSTEM.norm>
-0.428751

>  <SCORE.heavy>
24

>  <SCORE.norm>
-1.26194

$$$$
TOL.pdb
  rDOCK(R)          3D
libRbt.so/2013.1/901 2013/11/27
 25 26  0  0  0  0  0  0  0  0999 V2000
   23.3377   28.0069   71.8983 C   0  0  0  0  0  0
   22.7467   28.2320   73.0987 F   0  0  0  0  0  0
   24.0760   29.1110   71.6084 F   0  0  0  0  0  0
   24.2039   26.9689   72.0432 F   0  0  0  0  0  0
   22.2960   27.7008   70.8004 C   0  0  0  0  0  0
   22.3745   26.5863   69.9253 C   0  0  0  0  0  0
   23.3850   25.7425   70.0302 O   0  0  0  0  0  0
   22.9963   24.4737   70.5303 C   0  0  0  0  0  0
   21.3693   26.3992   68.9512 C   0  0  0  0  0  0
   20.3016   27.2972   68.8416 C   0  0  0  0  0  0
   20.2216   28.4061   69.7070 C   0  0  0  0  0  0
   19.1380   29.3072   69.5849 C   0  0  0  0  0  0
   19.0582   30.4119   70.4487 C   0  0  0  0  0  0
   20.0397   30.6225   71.4199 C   0  0  0  0  0  0
   21.1101   29.7271   71.5373 C   0  0  0  0  0  0
   21.2131   28.6122   70.6847 C   0  0  0  0  0  0
   18.0338   29.1565   68.5652 C   0  0  0  0  0  0
   16.4587   28.7269   69.0855 S   0  0  0  0  0  0
   18.2947   29.3738   67.2752 N   0  0  0  0  0  0
   19.6158   29.8423   66.8714 C   0  0  0  0  0  0
   17.2809   29.1729   66.2447 C   0  0  0  0  0  0
   16.4382   30.4408   66.0243 C   0  0  0  0  0  0
   15.3898   30.6206   66.5860 O   0  0  0  0  0  0
   16.9552   31.3319   65.1711 O   0  0  0  0  0  0
   16.4951   32.1276   64.9889 H   0  0  0  0  0  0
  1  2  1  0  0  0
  1  3  1  0  0  0
  1  4  1  0  0  0
  1  5  1  0  0  0
  5  6  2  0  0  0
  5 16  1  0  0  0
  6  7  1  0  0  0
  6  9  1  0  0  0
  7  8  1  0  0  0
  9 10  2  0  0  0
 10 11  1  0  0  0
 11 12  2  0  0  0
 11 16  1  0  0  0
 12 13  1  0  0  0
 12 17  1  0  0  0
 13 14  2  0  0  0
 14 15  1  0  0  0
 15 16  2  0  0  0
 17 18  2  0  0  0
 17 19  1  0  0  0
 19 20  1  0  0  0
 19 21  1  0  0  0
 21 22  1  0  0  0
 22 23  2  0  0  0
 22 24  1  0  0  0
 24 25  1  0  0  0
M  END
>  <CHROM.0>
166.92354716,-98.93233416,178.83212087,179.24097928,-7.00169372,-158.02560603
-179.98554412,-59.07612316,60.47707241,-61.54190337,61.71708449,-61.41326028
-60.50081437,123.17296549

>  <CHROM.1>
-129.85490218,110.25290624,109.79203912,88.01159379,-94.26905155,179.97544014
20.17482601,28.59206079,69.48067809,0.12932507,-0.68387236,0.75734709

>  <FORMUL>
      TOL    C16 H14 F3 N1 O3 S1

>  <HET>
 TOL  A 320      24

>  <HETNAM>
     TOL TOLRESTAT

>  <Name>
TOL.pdb

>  <RI>
0

>  <Rbt.Current_Directory>
/home/malgorzata/Desktop/rDOCK_IFD/Wyniki/1_aldose_reductase/IFD

>  <Rbt.Executable>
rbdock ($Id: //depot/dev/client3/rdock/2013.1/src/exe/rbdock.cxx#4 $)

>  <Rbt.Library>
libRbt.so (2013.1, Build901 2013/11/27)

>  <Rbt.Parameter_File>
/home/malgorzata/Desktop/rDock_2013.1_src/data/scripts/dock.prm

>  <Rbt.Receptor>
cavity.prm

>  <SCORE>
-28.3526

>  <SCORE.INTER>
-16.7312

>  <SCORE.INTER.CONST>
1

>  <SCORE.INTER.POLAR>
0

>  <SCORE.INTER.REPUL>
0

>  <SCORE.INTER.ROT>
5

>  <SCORE.INTER.VDW>
-27.1312

>  <SCORE.INTER.norm>
-0.697132

>  <SCORE.INTRA>
-5.30358

>  <SCORE.INTRA.DIHEDRAL>
3.13416

>  <SCORE.INTRA.DIHEDRAL.0>
16.9783

>  <SCORE.INTRA.POLAR>
0

>  <SCORE.INTRA.POLAR.0>
0

>  <SCORE.INTRA.REPUL>
0

>  <SCORE.INTRA.REPUL.0>
0

>  <SCORE.INTRA.VDW>
-6.87066

>  <SCORE.INTRA.VDW.0>
4.87734

>  <SCORE.INTRA.norm>
-0.220983

>  <SCORE.RESTR>
0

>  <SCORE.RESTR.CAVITY>
0

>  <SCORE.RESTR.norm>
0

>  <SCORE.SYSTEM>
-6.31783

>  <SCORE.SYSTEM.CONST>
0

>  <SCORE.SYSTEM.DIHEDRAL>
4.29662

>  <SCORE.SYSTEM.POLAR>
-1.12798

>  <SCORE.SYSTEM.REPUL>
0.0273097

>  <SCORE.SYSTEM.VDW>
-4.76757

>  <SCORE.SYSTEM.norm>
-0.263243

>  <SCORE.heavy>
24

>  <SCORE.norm>
-1.18136

$$$$
TOL.pdb
  rDOCK(R)          3D
libRbt.so/2013.1/901 2013/11/27
 25 26  0  0  0  0  0  0  0  0999 V2000
   28.4156   17.3454   76.8124 C   0  0  0  0  0  0
   29.2358   17.9363   77.7173 F   0  0  0  0  0  0
   29.0592   17.3783   75.6153 F   0  0  0  0  0  0
   28.2768   16.0383   77.1600 F   0  0  0  0  0  0
   27.0400   18.0441   76.7509 C   0  0  0  0  0  0
   25.8123   17.4000   77.0544 C   0  0  0  0  0  0
   25.8121   16.1291   77.4139 O   0  0  0  0  0  0
   25.3320   15.2666   76.3958 C   0  0  0  0  0  0
   24.6069   18.1299   76.9634 C   0  0  0  0  0  0
   24.6113   19.4756   76.5794 C   0  0  0  0  0  0
   25.8278   20.1178   76.2750 C   0  0  0  0  0  0
   25.8185   21.4780   75.8867 C   0  0  0  0  0  0
   27.0317   22.1179   75.5845 C   0  0  0  0  0  0
   28.2386   21.4194   75.6642 C   0  0  0  0  0  0
   28.2427   20.0730   76.0497 C   0  0  0  0  0  0
   27.0411   19.4088   76.3584 C   0  0  0  0  0  0
   24.5619   22.3087   75.7747 C   0  0  0  0  0  0
   23.5482   22.4930   77.1439 S   0  0  0  0  0  0
   24.2646   22.9001   74.6165 N   0  0  0  0  0  0
   25.1979   22.8157   73.4986 C   0  0  0  0  0  0
   23.0279   23.6540   74.4372 C   0  0  0  0  0  0
   21.8051   22.7246   74.3520 C   0  0  0  0  0  0
   20.8524   22.8490   75.0757 O   0  0  0  0  0  0
   21.8716   21.7740   73.4132 O   0  0  0  0  0  0
   21.1649   21.1675   73.3097 H   0  0  0  0  0  0
  1  2  1  0  0  0
  1  3  1  0  0  0
  1  4  1  0  0  0
  1  5  1  0  0  0
  5  6  2  0  0  0
  5 16  1  0  0  0
  6  7  1  0  0  0
  6  9  1  0  0  0
  7  8  1  0  0  0
  9 10  2  0  0  0
 10 11  1  0  0  0
 11 12  2  0  0  0
 11 16  1  0  0  0
 12 13  1  0  0  0
 12 17  1  0  0  0
 13 14  2  0  0  0
 14 15  1  0  0  0
 15 16  2  0  0  0
 17 18  2  0  0  0
 17 19  1  0  0  0
 19 20  1  0  0  0
 19 21  1  0  0  0
 21 22  1  0  0  0
 22 23  2  0  0  0
 22 24  1  0  0  0
 24 25  1  0  0  0
M  END
>  <CHROM.0>
-103.43572671,90.95515326,4.91506185,62.44032467,-147.41006514,-77.42891071
-78.35160402,-59.07612316,56.79760265,-61.54190337,60.39527633,-61.41326028
-60.50081437,121.43485650

>  <CHROM.1>
-118.88279927,-106.12993270,57.90409401,-72.66977274,125.27701066,179.48824606
25.59494233,19.98222630,76.00263743,-0.88769506,-0.05443851,-0.28696336

>  <FORMUL>
      TOL    C16 H14 F3 N1 O3 S1

>  <HET>
 TOL  A 320      24

>  <HETNAM>
     TOL TOLRESTAT

>  <Name>
TOL.pdb

>  <RI>
0

>  <Rbt.Current_Directory>
/home/malgorzata/Desktop/rDOCK_IFD/Wyniki/1_aldose_reductase/IFD

>  <Rbt.Executable>
rbdock ($Id: //depot/dev/client3/rdock/2013.1/src/exe/rbdock.cxx#4 $)

>  <Rbt.Library>
libRbt.so (2013.1, Build901 2013/11/27)

>  <Rbt.Parameter_File>
/home/malgorzata/Desktop/rDock_2013.1_src/data/scripts/dock.prm

>  <Rbt.Receptor>
cavity.prm

>  <SCORE>
-18.6748

>  <SCORE.INTER>
-4.97889

>  <SCORE.INTER.CONST>
1

>  <SCORE.INTER.POLAR>
-2.0336

>  <SCORE.INTER.REPUL>
0.153006

>  <SCORE.INTER.ROT>
5

>  <SCORE.INTER.VDW>
-9.22968

>  <SCORE.INTER.norm>
-0.207454

>  <SCORE.INTRA>
-4.71642

>  <SCORE.INTRA.DIHEDRAL>
0.993804

>  <SCORE.INTRA.DIHEDRAL.0>
16.9783

>  <SCORE.INTRA.POLAR>
0

>  <SCORE.INTRA.POLAR.0>
0

>  <SCORE.INTRA.REPUL>
0

>  <SCORE.INTRA.REPUL.0>
0

>  <SCORE.INTRA.VDW>
-5.21332

>  <SCORE.INTRA.VDW.0>
4.87734

>  <SCORE.INTRA.norm>
-0.196517

>  <SCORE.RESTR>
0.00247168

>  <SCORE.RESTR.CAVITY>
0.00247168

>  <SCORE.RESTR.norm>
0.000102987

>  <SCORE.SYSTEM>
-8.98193

>  <SCORE.SYSTEM.CONST>
0

>  <SCORE.SYSTEM.DIHEDRAL>
10.1019

>  <SCORE.SYSTEM.POLAR>
-2.82869

>  <SCORE.SYSTEM.REPUL>
0.0690699

>  <SCORE.SYSTEM.VDW>
-4.76072

>  <SCORE.SYSTEM.norm>
-0.374247

>  <SCORE.heavy>
24

>  <SCORE.norm>
-0.778115

$$$$
TOL.pdb
  rDOCK(R)          3D
libRbt.so/2013.1/901 2013/11/27
 25 26  0  0  0  0  0  0  0  0999 V2000
   21.7406   23.6974   66.3984 C   0  0  0  0  0  0
   22.1435   22.8495   67.3780 F   0  0  0  0  0  0
   22.7599   23.7791   65.5027 F   0  0  0  0  0  0
   20.6847   23.1291   65.7573 F   0  0  0  0  0  0
   21.3554   25.0804   66.9669 C   0  0  0  0  0  0
   21.3581   25.3946   68.3508 C   0  0  0  0  0  0
   21.7057   24.4723   69.2300 O   0  0  0  0  0  0
   23.0257   24.6441   69.7190 C   0  0  0  0  0  0
   20.9846   26.6913   68.7669 C   0  0  0  0  0  0
   20.6143   27.6649   67.8322 C   0  0  0  0  0  0
   20.6080   27.3560   66.4576 C   0  0  0  0  0  0
   20.2303   28.3485   65.5231 C   0  0  0  0  0  0
   20.2254   28.0403   64.1528 C   0  0  0  0  0  0
   20.5882   26.7650   63.7136 C   0  0  0  0  0  0
   20.9621   25.7860   64.6426 C   0  0  0  0  0  0
   20.9760   26.0693   66.0209 C   0  0  0  0  0  0
   19.8243   29.7514   65.9090 C   0  0  0  0  0  0
   18.5734   29.9813   67.0572 S   0  0  0  0  0  0
   20.4539   30.7928   65.3626 N   0  0  0  0  0  0
   21.5858   30.5692   64.4700 C   0  0  0  0  0  0
   20.0522   32.1664   65.6488 C   0  0  0  0  0  0
   19.0976   32.7130   64.5734 C   0  0  0  0  0  0
   19.0666   32.2682   63.4563 O   0  0  0  0  0  0
   18.2999   33.7115   64.9687 O   0  0  0  0  0  0
   17.7255   34.1237   64.3537 H   0  0  0  0  0  0
  1  2  1  0  0  0
  1  3  1  0  0  0
  1  4  1  0  0  0
  1  5  1  0  0  0
  5  6  2  0  0  0
  5 16  1  0  0  0
  6  7  1  0  0  0
  6  9  1  0  0  0
  7  8  1  0  0  0
  9 10  2  0  0  0
 10 11  1  0  0  0
 11 12  2  0  0  0
 11 16  1  0  0  0
 12 13  1  0  0  0
 12 17  1  0  0  0
 13 14  2  0  0  0
 14 15  1  0  0  0
 15 16  2  0  0  0
 17 18  2  0  0  0
 17 19  1  0  0  0
 19 20  1  0  0  0
 19 21  1  0  0  0
 21 22  1  0  0  0
 22 23  2  0  0  0
 22 24  1  0  0  0
 24 25  1  0  0  0
M  END
>  <CHROM.0>
167.22318181,91.43990276,5.73977888,-166.95350434,-148.27096225,-162.55199613
-75.76412885,-59.07612316,-52.15137866,-61.54190337,-171.26298559,-61.41326028
-60.50081437,-100.40638701

>  <CHROM.1>
-3.08904572,102.40086013,-53.93379681,-95.63296917,-23.75420068,176.72343334
20.63240603,27.59470862,66.20345766,-0.23231388,1.25702869,-1.60704202

>  <FORMUL>
      TOL    C16 H14 F3 N1 O3 S1

>  <HET>
 TOL  A 320      24

>  <HETNAM>
     TOL TOLRESTAT

>  <Name>
TOL.pdb

>  <RI>
0

>  <Rbt.Current_Directory>
/home/malgorzata/Desktop/rDOCK_IFD/Wyniki/1_aldose_reductase/IFD

>  <Rbt.Executable>
rbdock ($Id: //depot/dev/client3/rdock/2013.1/src/exe/rbdock.cxx#4 $)

>  <Rbt.Library>
libRbt.so (2013.1, Build901 2013/11/27)

>  <Rbt.Parameter_File>
/home/malgorzata/Desktop/rDock_2013.1_src/data/scripts/dock.prm

>  <Rbt.Receptor>
cavity.prm

>  <SCORE>
-26.3725

>  <SCORE.INTER>
-15.2486

>  <SCORE.INTER.CONST>
1

>  <SCORE.INTER.POLAR>
-0.790725

>  <SCORE.INTER.REPUL>
0

>  <SCORE.INTER.ROT>
5

>  <SCORE.INTER.VDW>
-22.9602

>  <SCORE.INTER.norm>
-0.635359

>  <SCORE.INTRA>
-4.90696

>  <SCORE.INTRA.DIHEDRAL>
0.529701

>  <SCORE.INTRA.DIHEDRAL.0>
16.9783

>  <SCORE.INTRA.POLAR>
0

>  <SCORE.INTRA.POLAR.0>
0

>  <SCORE.INTRA.REPUL>
0

>  <SCORE.INTRA.REPUL.0>
0

>  <SCORE.INTRA.VDW>
-5.17181

>  <SCORE.INTRA.VDW.0>
4.87734

>  <SCORE.INTRA.norm>
-0.204457

>  <SCORE.RESTR>
0.120345

>  <SCORE.RESTR.CAVITY>
0.120345

>  <SCORE.RESTR.norm>
0.00501437

>  <SCORE.SYSTEM>
-6.33729

>  <SCORE.SYSTEM.CONST>
0

>  <SCORE.SYSTEM.DIHEDRAL>
6.29233

>  <SCORE.SYSTEM.POLAR>
-2.16914

>  <SCORE.SYSTEM.REPUL>
0.24379

>  <SCORE.SYSTEM.VDW>
-3.32732

>  <SCORE.SYSTEM.norm>
-0.264054

>  <SCORE.heavy>
24

>  <SCORE.norm>
-1.09886

$$$$
