TOL.pdb
  rDOCK(R)          3D
libRbt.so/2013.1/901 2013/11/27
 25 26  0  0  0  0  0  0  0  0999 V2000
   23.8651   28.1543   73.7811 C   0  0  0  0  0  0
   24.2456   29.4516   73.8956 F   0  0  0  0  0  0
   25.0020   27.4091   73.7650 F   0  0  0  0  0  0
   23.1770   27.8164   74.9042 F   0  0  0  0  0  0
   23.0025   27.9242   72.5213 C   0  0  0  0  0  0
   23.2531   26.9034   71.5678 C   0  0  0  0  0  0
   24.2758   26.0855   71.7389 O   0  0  0  0  0  0
   23.9528   24.9544   72.5310 C   0  0  0  0  0  0
   22.4040   26.7806   70.4461 C   0  0  0  0  0  0
   21.3229   27.6510   70.2670 C   0  0  0  0  0  0
   21.0725   28.6672   71.2101 C   0  0  0  0  0  0
   19.9773   29.5415   71.0168 C   0  0  0  0  0  0
   19.7275   30.5536   71.9580 C   0  0  0  0  0  0
   20.5525   30.6992   73.0757 C   0  0  0  0  0  0
   21.6351   29.8307   73.2630 C   0  0  0  0  0  0
   21.9067   28.8081   72.3352 C   0  0  0  0  0  0
   19.0350   29.4563   69.8393 C   0  0  0  0  0  0
   19.5115   30.1110   68.3291 S   0  0  0  0  0  0
   17.8507   28.8602   69.9855 N   0  0  0  0  0  0
   17.5137   28.2173   71.2508 C   0  0  0  0  0  0
   16.8773   28.8146   68.8991 C   0  0  0  0  0  0
   15.7143   29.7925   69.1390 C   0  0  0  0  0  0
   15.7819   30.9559   68.8410 O   0  0  0  0  0  0
   14.6211   29.2582   69.6947 O   0  0  0  0  0  0
   14.0198   29.8030   70.1633 H   0  0  0  0  0  0
  1  2  1  0  0  0
  1  3  1  0  0  0
  1  4  1  0  0  0
  1  5  1  0  0  0
  5  6  2  0  0  0
  5 16  1  0  0  0
  6  7  1  0  0  0
  6  9  1  0  0  0
  7  8  1  0  0  0
  9 10  2  0  0  0
 10 11  1  0  0  0
 11 12  2  0  0  0
 11 16  1  0  0  0
 12 13  1  0  0  0
 12 17  1  0  0  0
 13 14  2  0  0  0
 14 15  1  0  0  0
 15 16  2  0  0  0
 17 18  2  0  0  0
 17 19  1  0  0  0
 19 20  1  0  0  0
 19 21  1  0  0  0
 21 22  1  0  0  0
 22 23  2  0  0  0
 22 24  1  0  0  0
 24 25  1  0  0  0
M  END
>  <CHROM.0>
167.64321402,179.74376633,-121.29838092,177.10161560,37.31956086,-65.27381079
74.58377831,-95.09396507,-61.18859492,-61.54190337,-140.06775725,-61.41326028
-60.50081437,99.74042515

>  <CHROM.1>
129.37938903,87.50673969,-79.53142675,-105.46614937,84.16995333,156.66285480
20.68508185,28.65744066,71.35794731,0.16250748,-0.54079944,0.83272121

>  <FORMUL>
      TOL    C16 H14 F3 N1 O3 S1

>  <HET>
 TOL  A 320      24

>  <HETNAM>
     TOL TOLRESTAT

>  <Name>
TOL.pdb

>  <RI>
0

>  <Rbt.Current_Directory>
/home/malgorzata/Desktop/rDOCK_IFD/test

>  <Rbt.Executable>
rbdock ($Id: //depot/dev/client3/rdock/2013.1/src/exe/rbdock.cxx#4 $)

>  <Rbt.Library>
libRbt.so (2013.1, Build901 2013/11/27)

>  <Rbt.Parameter_File>
/home/malgorzata/Desktop/rDock_2013.1_src/data/scripts/soft_docking.prm

>  <Rbt.Receptor>
cavity.prm

>  <SCORE>
-46.1586

>  <SCORE.INTER>
-34.7827

>  <SCORE.INTER.CONST>
1

>  <SCORE.INTER.POLAR>
-3.52925

>  <SCORE.INTER.REPUL>
0

>  <SCORE.INTER.ROT>
5

>  <SCORE.INTER.VDW>
-33.1833

>  <SCORE.INTER.norm>
-1.44928

>  <SCORE.INTRA>
-5.53413

>  <SCORE.INTRA.DIHEDRAL>
8.3291

>  <SCORE.INTRA.DIHEDRAL.0>
16.9783

>  <SCORE.INTRA.POLAR>
0

>  <SCORE.INTRA.POLAR.0>
0

>  <SCORE.INTRA.REPUL>
0

>  <SCORE.INTRA.REPUL.0>
0

>  <SCORE.INTRA.VDW>
-7.19995

>  <SCORE.INTRA.VDW.0>
4.87734

>  <SCORE.INTRA.norm>
-0.230589

>  <SCORE.RESTR>
0.359154

>  <SCORE.RESTR.CAVITY>
0.359154

>  <SCORE.RESTR.norm>
0.0149648

>  <SCORE.SYSTEM>
-6.20089

>  <SCORE.SYSTEM.CONST>
0

>  <SCORE.SYSTEM.DIHEDRAL>
9.70579

>  <SCORE.SYSTEM.POLAR>
-3.10666

>  <SCORE.SYSTEM.REPUL>
1.36954

>  <SCORE.SYSTEM.VDW>
-7.33882

>  <SCORE.SYSTEM.norm>
-0.25837

>  <SCORE.heavy>
24

>  <SCORE.norm>
-1.92328

$$$$
TOL.pdb
  rDOCK(R)          3D
libRbt.so/2013.1/901 2013/11/27
 25 26  0  0  0  0  0  0  0  0999 V2000
   23.4519   29.3047   73.1713 C   0  0  0  0  0  0
   23.9003   30.5779   73.0350 F   0  0  0  0  0  0
   24.5216   28.5452   73.5276 F   0  0  0  0  0  0
   22.5734   29.2761   74.2087 F   0  0  0  0  0  0
   22.7846   28.7954   71.8753 C   0  0  0  0  0  0
   23.2592   27.6887   71.1243 C   0  0  0  0  0  0
   24.3321   27.0345   71.5308 O   0  0  0  0  0  0
   24.0259   25.7791   72.1148 C   0  0  0  0  0  0
   22.5765   27.3061   69.9489 C   0  0  0  0  0  0
   21.4416   28.0037   69.5201 C   0  0  0  0  0  0
   20.9688   29.1044   70.2616 C   0  0  0  0  0  0
   19.8215   29.8020   69.8167 C   0  0  0  0  0  0
   19.3500   30.8984   70.5571 C   0  0  0  0  0  0
   20.0071   31.3000   71.7224 C   0  0  0  0  0  0
   21.1422   30.6056   72.1592 C   0  0  0  0  0  0
   21.6346   29.5034   71.4360 C   0  0  0  0  0  0
   19.0499   29.4370   68.5704 C   0  0  0  0  0  0
   19.7132   29.7978   67.0323 S   0  0  0  0  0  0
   17.8695   28.8257   68.6822 N   0  0  0  0  0  0
   17.3775   28.4340   69.9984 C   0  0  0  0  0  0
   17.0539   28.5161   67.5122 C   0  0  0  0  0  0
   15.9371   29.5544   67.3094 C   0  0  0  0  0  0
   14.9446   29.3140   66.6737 O   0  0  0  0  0  0
   16.1427   30.7396   67.8947 O   0  0  0  0  0  0
   15.4133   31.2534   68.1811 H   0  0  0  0  0  0
  1  2  1  0  0  0
  1  3  1  0  0  0
  1  4  1  0  0  0
  1  5  1  0  0  0
  5  6  2  0  0  0
  5 16  1  0  0  0
  6  7  1  0  0  0
  6  9  1  0  0  0
  7  8  1  0  0  0
  9 10  2  0  0  0
 10 11  1  0  0  0
 11 12  2  0  0  0
 11 16  1  0  0  0
 12 13  1  0  0  0
 12 17  1  0  0  0
 13 14  2  0  0  0
 14 15  1  0  0  0
 15 16  2  0  0  0
 17 18  2  0  0  0
 17 19  1  0  0  0
 19 20  1  0  0  0
 19 21  1  0  0  0
 21 22  1  0  0  0
 22 23  2  0  0  0
 22 24  1  0  0  0
 24 25  1  0  0  0
M  END
>  <CHROM.0>
-8.45468159,-176.04246655,131.39918017,132.96506162,94.99617646,30.72723064
-157.07558802,-74.61844751,-61.18859492,-61.54190337,-108.85609597,-61.41326028
-60.50081437,-39.50085414

>  <CHROM.1>
118.04873292,105.00741768,-73.91871261,-99.37413460,-158.32344592,-150.43803474
20.59744601,29.12454727,70.32838819,0.35272326,-0.56400320,0.80764424

>  <FORMUL>
      TOL    C16 H14 F3 N1 O3 S1

>  <HET>
 TOL  A 320      24

>  <HETNAM>
     TOL TOLRESTAT

>  <Name>
TOL.pdb

>  <RI>
0

>  <Rbt.Current_Directory>
/home/malgorzata/Desktop/rDOCK_IFD/test

>  <Rbt.Executable>
rbdock ($Id: //depot/dev/client3/rdock/2013.1/src/exe/rbdock.cxx#4 $)

>  <Rbt.Library>
libRbt.so (2013.1, Build901 2013/11/27)

>  <Rbt.Parameter_File>
/home/malgorzata/Desktop/rDock_2013.1_src/data/scripts/soft_docking.prm

>  <Rbt.Receptor>
cavity.prm

>  <SCORE>
-36.2788

>  <SCORE.INTER>
-29.0593

>  <SCORE.INTER.CONST>
1

>  <SCORE.INTER.POLAR>
-1.51563

>  <SCORE.INTER.REPUL>
0.0819965

>  <SCORE.INTER.ROT>
5

>  <SCORE.INTER.VDW>
-34.7161

>  <SCORE.INTER.norm>
-1.2108

>  <SCORE.INTRA>
-5.29422

>  <SCORE.INTRA.DIHEDRAL>
9.35837

>  <SCORE.INTRA.DIHEDRAL.0>
16.9783

>  <SCORE.INTRA.POLAR>
0

>  <SCORE.INTRA.POLAR.0>
0

>  <SCORE.INTRA.REPUL>
0

>  <SCORE.INTRA.REPUL.0>
0

>  <SCORE.INTRA.VDW>
-7.1659

>  <SCORE.INTRA.VDW.0>
4.87734

>  <SCORE.INTRA.norm>
-0.220593

>  <SCORE.RESTR>
0.0777283

>  <SCORE.RESTR.CAVITY>
0.0777283

>  <SCORE.RESTR.norm>
0.00323868

>  <SCORE.SYSTEM>
-2.00306

>  <SCORE.SYSTEM.CONST>
0

>  <SCORE.SYSTEM.DIHEDRAL>
18.7925

>  <SCORE.SYSTEM.POLAR>
-2.77806

>  <SCORE.SYSTEM.REPUL>
1.16943

>  <SCORE.SYSTEM.VDW>
-7.80103

>  <SCORE.SYSTEM.norm>
-0.0834606

>  <SCORE.heavy>
24

>  <SCORE.norm>
-1.51162

$$$$
TOL.pdb
  rDOCK(R)          3D
libRbt.so/2013.1/901 2013/11/27
 25 26  0  0  0  0  0  0  0  0999 V2000
   16.7953   29.3480   65.1139 C   0  0  0  0  0  0
   17.0724   29.3066   63.7864 F   0  0  0  0  0  0
   16.3296   30.5968   65.3815 F   0  0  0  0  0  0
   15.7800   28.4775   65.3597 F   0  0  0  0  0  0
   18.0351   28.9964   65.9644 C   0  0  0  0  0  0
   19.2336   28.4569   65.4290 C   0  0  0  0  0  0
   19.3262   28.2307   64.1310 O   0  0  0  0  0  0
   18.7365   27.0015   63.7406 C   0  0  0  0  0  0
   20.3098   28.1667   66.2960 C   0  0  0  0  0  0
   20.2067   28.4053   67.6711 C   0  0  0  0  0  0
   19.0176   28.9385   68.2067 C   0  0  0  0  0  0
   18.9256   29.1738   69.5985 C   0  0  0  0  0  0
   17.7404   29.7065   70.1316 C   0  0  0  0  0  0
   16.6595   30.0010   69.2975 C   0  0  0  0  0  0
   16.7557   29.7669   67.9200 C   0  0  0  0  0  0
   17.9322   29.2345   67.3606 C   0  0  0  0  0  0
   20.0435   28.8858   70.5726 C   0  0  0  0  0  0
   20.8796   30.1894   71.3059 S   0  0  0  0  0  0
   20.3562   27.6214   70.8609 N   0  0  0  0  0  0
   19.5596   26.5328   70.3059 C   0  0  0  0  0  0
   21.4730   27.2904   71.7403 C   0  0  0  0  0  0
   22.8271   27.5228   71.0483 C   0  0  0  0  0  0
   23.8484   27.6655   71.6675 O   0  0  0  0  0  0
   22.7911   27.5479   69.7113 O   0  0  0  0  0  0
   21.9680   27.5227   69.2643 H   0  0  0  0  0  0
  1  2  1  0  0  0
  1  3  1  0  0  0
  1  4  1  0  0  0
  1  5  1  0  0  0
  5  6  2  0  0  0
  5 16  1  0  0  0
  6  7  1  0  0  0
  6  9  1  0  0  0
  7  8  1  0  0  0
  9 10  2  0  0  0
 10 11  1  0  0  0
 11 12  2  0  0  0
 11 16  1  0  0  0
 12 13  1  0  0  0
 12 17  1  0  0  0
 13 14  2  0  0  0
 14 15  1  0  0  0
 15 16  2  0  0  0
 17 18  2  0  0  0
 17 19  1  0  0  0
 19 20  1  0  0  0
 19 21  1  0  0  0
 21 22  1  0  0  0
 22 23  2  0  0  0
 22 24  1  0  0  0
 24 25  1  0  0  0
M  END
>  <CHROM.0>
41.83703345,76.93969923,-105.53182883,152.09045627,-46.71509343,-49.06098364
104.38749130,-139.84328386,-61.18859492,-61.54190337,165.28820065,-61.41326028
-60.50081437,138.61477074

>  <CHROM.1>
-11.00496893,-82.03841662,109.59795676,-73.31881403,159.50148083,6.71512244
19.23146505,28.69732422,68.06515735,2.28888016,0.48383984,-1.82750447

>  <FORMUL>
      TOL    C16 H14 F3 N1 O3 S1

>  <HET>
 TOL  A 320      24

>  <HETNAM>
     TOL TOLRESTAT

>  <Name>
TOL.pdb

>  <RI>
0

>  <Rbt.Current_Directory>
/home/malgorzata/Desktop/rDOCK_IFD/test

>  <Rbt.Executable>
rbdock ($Id: //depot/dev/client3/rdock/2013.1/src/exe/rbdock.cxx#4 $)

>  <Rbt.Library>
libRbt.so (2013.1, Build901 2013/11/27)

>  <Rbt.Parameter_File>
/home/malgorzata/Desktop/rDock_2013.1_src/data/scripts/soft_docking.prm

>  <Rbt.Receptor>
cavity.prm

>  <SCORE>
-47.3075

>  <SCORE.INTER>
-29.395

>  <SCORE.INTER.CONST>
1

>  <SCORE.INTER.POLAR>
-0.804024

>  <SCORE.INTER.REPUL>
0

>  <SCORE.INTER.ROT>
5

>  <SCORE.INTER.VDW>
-37.0613

>  <SCORE.INTER.norm>
-1.22479

>  <SCORE.INTRA>
-5.79279

>  <SCORE.INTRA.DIHEDRAL>
3.85396

>  <SCORE.INTRA.DIHEDRAL.0>
16.9783

>  <SCORE.INTRA.POLAR>
0

>  <SCORE.INTRA.POLAR.0>
0

>  <SCORE.INTRA.REPUL>
0

>  <SCORE.INTRA.REPUL.0>
0

>  <SCORE.INTRA.VDW>
-6.56359

>  <SCORE.INTRA.VDW.0>
4.87734

>  <SCORE.INTRA.norm>
-0.241366

>  <SCORE.RESTR>
0

>  <SCORE.RESTR.CAVITY>
0

>  <SCORE.RESTR.norm>
0

>  <SCORE.SYSTEM>
-12.1197

>  <SCORE.SYSTEM.CONST>
0

>  <SCORE.SYSTEM.DIHEDRAL>
8.59406

>  <SCORE.SYSTEM.POLAR>
-4.13533

>  <SCORE.SYSTEM.REPUL>
1.16943

>  <SCORE.SYSTEM.VDW>
-8.20374

>  <SCORE.SYSTEM.norm>
-0.504986

>  <SCORE.heavy>
24

>  <SCORE.norm>
-1.97114

$$$$
TOL.pdb
  rDOCK(R)          3D
libRbt.so/2013.1/901 2013/11/27
 25 26  0  0  0  0  0  0  0  0999 V2000
   17.9839   28.7669   63.2792 C   0  0  0  0  0  0
   18.9003   28.1031   62.5306 F   0  0  0  0  0  0
   18.2460   30.0936   63.1396 F   0  0  0  0  0  0
   16.7560   28.5395   62.7412 F   0  0  0  0  0  0
   18.0252   28.3196   64.7564 C   0  0  0  0  0  0
   18.7677   27.2042   65.2239 C   0  0  0  0  0  0
   19.4755   26.4860   64.3709 O   0  0  0  0  0  0
   18.6788   25.6079   63.5930 C   0  0  0  0  0  0
   18.7347   26.8772   66.5973 C   0  0  0  0  0  0
   17.9812   27.6392   67.4974 C   0  0  0  0  0  0
   17.2408   28.7458   67.0367 C   0  0  0  0  0  0
   16.4821   29.5070   67.9565 C   0  0  0  0  0  0
   15.7452   30.6107   67.4968 C   0  0  0  0  0  0
   15.7581   30.9554   66.1433 C   0  0  0  0  0  0
   16.5114   30.1992   65.2367 C   0  0  0  0  0  0
   17.2589   29.0890   65.6716 C   0  0  0  0  0  0
   16.4113   29.2065   69.4352 C   0  0  0  0  0  0
   14.9419   28.6407   70.1110 S   0  0  0  0  0  0
   17.4964   29.3714   70.1933 N   0  0  0  0  0  0
   18.7620   29.7510   69.5752 C   0  0  0  0  0  0
   17.4604   29.1626   71.6373 C   0  0  0  0  0  0
   18.2976   27.9413   72.0541 C   0  0  0  0  0  0
   18.8281   27.8638   73.1309 O   0  0  0  0  0  0
   18.3884   26.9691   71.1398 O   0  0  0  0  0  0
   18.8526   26.1801   71.3394 H   0  0  0  0  0  0
  1  2  1  0  0  0
  1  3  1  0  0  0
  1  4  1  0  0  0
  1  5  1  0  0  0
  5  6  2  0  0  0
  5 16  1  0  0  0
  6  7  1  0  0  0
  6  9  1  0  0  0
  7  8  1  0  0  0
  9 10  2  0  0  0
 10 11  1  0  0  0
 11 12  2  0  0  0
 11 16  1  0  0  0
 12 13  1  0  0  0
 12 17  1  0  0  0
 13 14  2  0  0  0
 14 15  1  0  0  0
 15 16  2  0  0  0
 17 18  2  0  0  0
 17 19  1  0  0  0
 19 20  1  0  0  0
 19 21  1  0  0  0
 21 22  1  0  0  0
 22 23  2  0  0  0
 22 24  1  0  0  0
 24 25  1  0  0  0
M  END
>  <CHROM.0>
39.49037843,32.56413289,-31.85898758,-159.71192203,76.82547086,-22.58211843
30.99386894,78.41649153,-61.18859492,-61.54190337,-139.60836983,-61.41326028
-60.50081437,113.05728086

>  <CHROM.1>
-9.75533403,-76.92522070,-111.52522034,112.70004817,150.97457671,-177.42934308
17.55236447,28.53971453,67.14281907,1.43069378,0.80575284,-1.50301091

>  <FORMUL>
      TOL    C16 H14 F3 N1 O3 S1

>  <HET>
 TOL  A 320      24

>  <HETNAM>
     TOL TOLRESTAT

>  <Name>
TOL.pdb

>  <RI>
0

>  <Rbt.Current_Directory>
/home/malgorzata/Desktop/rDOCK_IFD/test

>  <Rbt.Executable>
rbdock ($Id: //depot/dev/client3/rdock/2013.1/src/exe/rbdock.cxx#4 $)

>  <Rbt.Library>
libRbt.so (2013.1, Build901 2013/11/27)

>  <Rbt.Parameter_File>
/home/malgorzata/Desktop/rDock_2013.1_src/data/scripts/soft_docking.prm

>  <Rbt.Receptor>
cavity.prm

>  <SCORE>
-31.9437

>  <SCORE.INTER>
-24.7718

>  <SCORE.INTER.CONST>
1

>  <SCORE.INTER.POLAR>
-1.12919

>  <SCORE.INTER.REPUL>
0

>  <SCORE.INTER.ROT>
5

>  <SCORE.INTER.VDW>
-31.3326

>  <SCORE.INTER.norm>
-1.03216

>  <SCORE.INTRA>
-4.53212

>  <SCORE.INTRA.DIHEDRAL>
3.11766

>  <SCORE.INTRA.DIHEDRAL.0>
16.9783

>  <SCORE.INTRA.POLAR>
0

>  <SCORE.INTRA.POLAR.0>
0

>  <SCORE.INTRA.REPUL>
0

>  <SCORE.INTRA.REPUL.0>
0

>  <SCORE.INTRA.VDW>
-5.15566

>  <SCORE.INTRA.VDW.0>
4.87734

>  <SCORE.INTRA.norm>
-0.188839

>  <SCORE.RESTR>
0.0733865

>  <SCORE.RESTR.CAVITY>
0.0733865

>  <SCORE.RESTR.norm>
0.00305777

>  <SCORE.SYSTEM>
-2.71318

>  <SCORE.SYSTEM.CONST>
0

>  <SCORE.SYSTEM.DIHEDRAL>
19.3102

>  <SCORE.SYSTEM.POLAR>
-3.45662

>  <SCORE.SYSTEM.REPUL>
1.16943

>  <SCORE.SYSTEM.VDW>
-6.46294

>  <SCORE.SYSTEM.norm>
-0.113049

>  <SCORE.heavy>
24

>  <SCORE.norm>
-1.33099

$$$$
TOL.pdb
  rDOCK(R)          3D
libRbt.so/2013.1/901 2013/11/27
 25 26  0  0  0  0  0  0  0  0999 V2000
   15.1671   29.8133   65.8945 C   0  0  0  0  0  0
   14.2310   29.0765   66.5438 F   0  0  0  0  0  0
   15.0669   29.5047   64.5744 F   0  0  0  0  0  0
   14.8376   31.1257   66.0282 F   0  0  0  0  0  0
   16.5841   29.5462   66.4469 C   0  0  0  0  0  0
   17.6990   29.2128   65.6345 C   0  0  0  0  0  0
   17.5493   29.1176   64.3258 O   0  0  0  0  0  0
   17.7004   30.3606   63.6601 C   0  0  0  0  0  0
   18.9535   28.9840   66.2412 C   0  0  0  0  0  0
   19.1073   29.0832   67.6286 C   0  0  0  0  0  0
   18.0023   29.4116   68.4386 C   0  0  0  0  0  0
   18.1706   29.5073   69.8398 C   0  0  0  0  0  0
   17.0689   29.8359   70.6466 C   0  0  0  0  0  0
   15.8160   30.0652   70.0734 C   0  0  0  0  0  0
   15.6546   29.9700   68.6854 C   0  0  0  0  0  0
   16.7424   29.6430   67.8548 C   0  0  0  0  0  0
   19.4874   29.2764   70.5432 C   0  0  0  0  0  0
   20.4780   30.6172   70.9393 S   0  0  0  0  0  0
   19.8556   28.0341   70.8601 N   0  0  0  0  0  0
   18.9463   26.9216   70.6081 C   0  0  0  0  0  0
   21.1484   27.7523   71.4758 C   0  0  0  0  0  0
   22.0100   26.8359   70.5903 C   0  0  0  0  0  0
   22.1475   27.0273   69.4107 O   0  0  0  0  0  0
   22.6010   25.8166   71.2237 O   0  0  0  0  0  0
   22.6598   24.9783   70.8093 H   0  0  0  0  0  0
  1  2  1  0  0  0
  1  3  1  0  0  0
  1  4  1  0  0  0
  1  5  1  0  0  0
  5  6  2  0  0  0
  5 16  1  0  0  0
  6  7  1  0  0  0
  6  9  1  0  0  0
  7  8  1  0  0  0
  9 10  2  0  0  0
 10 11  1  0  0  0
 11 12  2  0  0  0
 11 16  1  0  0  0
 12 13  1  0  0  0
 12 17  1  0  0  0
 13 14  2  0  0  0
 14 15  1  0  0  0
 15 16  2  0  0  0
 17 18  2  0  0  0
 17 19  1  0  0  0
 19 20  1  0  0  0
 19 21  1  0  0  0
 21 22  1  0  0  0
 22 23  2  0  0  0
 22 24  1  0  0  0
 24 25  1  0  0  0
M  END
>  <CHROM.0>
-33.19481974,-79.18059083,-63.64420430,143.97197893,-104.02775703,70.11904696
142.44567135,-139.15250916,-61.18859492,-61.54190337,-114.64580149,-61.41326028
-60.50081437,-51.46599836

>  <CHROM.1>
128.75158980,86.66340484,96.17068202,-118.65341911,46.64669732,141.04210671
18.17761617,29.08396978,68.28702963,2.45091894,0.46425922,-1.69505964

>  <FORMUL>
      TOL    C16 H14 F3 N1 O3 S1

>  <HET>
 TOL  A 320      24

>  <HETNAM>
     TOL TOLRESTAT

>  <Name>
TOL.pdb

>  <RI>
0

>  <Rbt.Current_Directory>
/home/malgorzata/Desktop/rDOCK_IFD/test

>  <Rbt.Executable>
rbdock ($Id: //depot/dev/client3/rdock/2013.1/src/exe/rbdock.cxx#4 $)

>  <Rbt.Library>
libRbt.so (2013.1, Build901 2013/11/27)

>  <Rbt.Parameter_File>
/home/malgorzata/Desktop/rDock_2013.1_src/data/scripts/soft_docking.prm

>  <Rbt.Receptor>
cavity.prm

>  <SCORE>
-47.2244

>  <SCORE.INTER>
-35.457

>  <SCORE.INTER.CONST>
1

>  <SCORE.INTER.POLAR>
-3.45036

>  <SCORE.INTER.REPUL>
0.052422

>  <SCORE.INTER.ROT>
5

>  <SCORE.INTER.VDW>
-34.3879

>  <SCORE.INTER.norm>
-1.47737

>  <SCORE.INTRA>
-4.20002

>  <SCORE.INTRA.DIHEDRAL>
14.156

>  <SCORE.INTRA.DIHEDRAL.0>
16.9783

>  <SCORE.INTRA.POLAR>
0

>  <SCORE.INTRA.POLAR.0>
0

>  <SCORE.INTRA.REPUL>
0

>  <SCORE.INTRA.REPUL.0>
0

>  <SCORE.INTRA.VDW>
-7.03122

>  <SCORE.INTRA.VDW.0>
4.87734

>  <SCORE.INTRA.norm>
-0.175001

>  <SCORE.RESTR>
0.156855

>  <SCORE.RESTR.CAVITY>
0.156855

>  <SCORE.RESTR.norm>
0.00653561

>  <SCORE.SYSTEM>
-7.72429

>  <SCORE.SYSTEM.CONST>
0

>  <SCORE.SYSTEM.DIHEDRAL>
19.5877

>  <SCORE.SYSTEM.POLAR>
-4.35148

>  <SCORE.SYSTEM.REPUL>
1.16943

>  <SCORE.SYSTEM.VDW>
-8.57024

>  <SCORE.SYSTEM.norm>
-0.321846

>  <SCORE.heavy>
24

>  <SCORE.norm>
-1.96769

$$$$
TOL.pdb
  rDOCK(R)          3D
libRbt.so/2013.1/901 2013/11/27
 25 26  0  0  0  0  0  0  0  0999 V2000
   15.8926   30.0115   65.8737 C   0  0  0  0  0  0
   15.0658   29.0230   65.4494 F   0  0  0  0  0  0
   15.9265   30.9481   64.8889 F   0  0  0  0  0  0
   15.3278   30.5937   66.9650 F   0  0  0  0  0  0
   17.2995   29.4708   66.2089 C   0  0  0  0  0  0
   18.2435   29.0639   65.2304 C   0  0  0  0  0  0
   17.9314   29.1399   63.9493 O   0  0  0  0  0  0
   17.0665   28.0979   63.5282 C   0  0  0  0  0  0
   19.5039   28.5796   65.6439 C   0  0  0  0  0  0
   19.8297   28.4981   67.0025 C   0  0  0  0  0  0
   18.8943   28.8988   67.9769 C   0  0  0  0  0  0
   19.2353   28.8101   69.3469 C   0  0  0  0  0  0
   18.3028   29.2108   70.3177 C   0  0  0  0  0  0
   17.0480   29.6918   69.9370 C   0  0  0  0  0  0
   16.7153   29.7783   68.5793 C   0  0  0  0  0  0
   17.6317   29.3839   67.5868 C   0  0  0  0  0  0
   20.5674   28.3033   69.8476 C   0  0  0  0  0  0
   21.1755   26.8117   69.2633 S   0  0  0  0  0  0
   21.2599   29.0295   70.7265 N   0  0  0  0  0  0
   20.7710   30.3445   71.1259 C   0  0  0  0  0  0
   22.5168   28.5510   71.2933 C   0  0  0  0  0  0
   22.3333   27.2121   72.0283 C   0  0  0  0  0  0
   21.6001   27.0944   72.9746 O   0  0  0  0  0  0
   23.0394   26.1872   71.5380 O   0  0  0  0  0  0
   22.6446   25.3410   71.4601 H   0  0  0  0  0  0
  1  2  1  0  0  0
  1  3  1  0  0  0
  1  4  1  0  0  0
  1  5  1  0  0  0
  5  6  2  0  0  0
  5 16  1  0  0  0
  6  7  1  0  0  0
  6  9  1  0  0  0
  7  8  1  0  0  0
  9 10  2  0  0  0
 10 11  1  0  0  0
 11 12  2  0  0  0
 11 16  1  0  0  0
 12 13  1  0  0  0
 12 17  1  0  0  0
 13 14  2  0  0  0
 14 15  1  0  0  0
 15 16  2  0  0  0
 17 18  2  0  0  0
 17 19  1  0  0  0
 19 20  1  0  0  0
 19 21  1  0  0  0
 21 22  1  0  0  0
 22 23  2  0  0  0
 22 24  1  0  0  0
 24 25  1  0  0  0
M  END
>  <CHROM.0>
27.01200362,65.28418572,-86.82446654,163.93100777,71.14130823,-55.27639062
106.41711860,160.43619767,-61.18859492,-61.54190337,-114.23259629,-61.41326028
-60.50081437,-107.89632049

>  <CHROM.1>
73.13138306,-76.75624913,-50.27460406,-58.46180633,-60.77749720,-138.07785362
18.91178913,28.77923772,68.20364432,2.44464949,0.56046914,-1.81053322

>  <FORMUL>
      TOL    C16 H14 F3 N1 O3 S1

>  <HET>
 TOL  A 320      24

>  <HETNAM>
     TOL TOLRESTAT

>  <Name>
TOL.pdb

>  <RI>
0

>  <Rbt.Current_Directory>
/home/malgorzata/Desktop/rDOCK_IFD/test

>  <Rbt.Executable>
rbdock ($Id: //depot/dev/client3/rdock/2013.1/src/exe/rbdock.cxx#4 $)

>  <Rbt.Library>
libRbt.so (2013.1, Build901 2013/11/27)

>  <Rbt.Parameter_File>
/home/malgorzata/Desktop/rDock_2013.1_src/data/scripts/soft_docking.prm

>  <Rbt.Receptor>
cavity.prm

>  <SCORE>
-43.6163

>  <SCORE.INTER>
-35.1425

>  <SCORE.INTER.CONST>
1

>  <SCORE.INTER.POLAR>
-2.80402

>  <SCORE.INTER.REPUL>
0

>  <SCORE.INTER.ROT>
5

>  <SCORE.INTER.VDW>
-36.0088

>  <SCORE.INTER.norm>
-1.46427

>  <SCORE.INTRA>
3.55322

>  <SCORE.INTRA.DIHEDRAL>
9.9637

>  <SCORE.INTRA.DIHEDRAL.0>
16.9783

>  <SCORE.INTRA.POLAR>
0

>  <SCORE.INTRA.POLAR.0>
0

>  <SCORE.INTRA.REPUL>
0

>  <SCORE.INTRA.REPUL.0>
0

>  <SCORE.INTRA.VDW>
1.56048

>  <SCORE.INTRA.VDW.0>
4.87734

>  <SCORE.INTRA.norm>
0.148051

>  <SCORE.RESTR>
0

>  <SCORE.RESTR.CAVITY>
0

>  <SCORE.RESTR.norm>
0

>  <SCORE.SYSTEM>
-12.0271

>  <SCORE.SYSTEM.CONST>
0

>  <SCORE.SYSTEM.DIHEDRAL>
10.9738

>  <SCORE.SYSTEM.POLAR>
-4.4033

>  <SCORE.SYSTEM.REPUL>
1.16943

>  <SCORE.SYSTEM.VDW>
-8.3899

>  <SCORE.SYSTEM.norm>
-0.501128

>  <SCORE.heavy>
24

>  <SCORE.norm>
-1.81735

$$$$
TOL.pdb
  rDOCK(R)          3D
libRbt.so/2013.1/901 2013/11/27
 25 26  0  0  0  0  0  0  0  0999 V2000
   15.3690   29.0904   68.3834 C   0  0  0  0  0  0
   14.9060   29.4679   67.1652 F   0  0  0  0  0  0
   14.8716   29.9760   69.2869 F   0  0  0  0  0  0
   14.8386   27.8734   68.6772 F   0  0  0  0  0  0
   16.9119   29.0361   68.4130 C   0  0  0  0  0  0
   17.7341   29.3145   67.2902 C   0  0  0  0  0  0
   17.1782   29.6425   66.1379 O   0  0  0  0  0  0
   17.1721   28.5758   65.2035 C   0  0  0  0  0  0
   19.1376   29.2327   67.4230 C   0  0  0  0  0  0
   19.7226   28.8821   68.6450 C   0  0  0  0  0  0
   18.9096   28.6026   69.7612 C   0  0  0  0  0  0
   19.5132   28.2481   70.9904 C   0  0  0  0  0  0
   18.7022   27.9708   72.1031 C   0  0  0  0  0  0
   17.3111   28.0420   71.9995 C   0  0  0  0  0  0
   16.7182   28.3942   70.7805 C   0  0  0  0  0  0
   17.5082   28.6775   69.6509 C   0  0  0  0  0  0
   21.0069   28.1474   71.1920 C   0  0  0  0  0  0
   21.8139   26.6874   70.8002 S   0  0  0  0  0  0
   21.6808   29.1999   71.6583 N   0  0  0  0  0  0
   20.9875   30.4636   71.8824 C   0  0  0  0  0  0
   23.1117   29.1305   71.9368 C   0  0  0  0  0  0
   23.3865   28.6734   73.3797 C   0  0  0  0  0  0
   23.9737   29.3633   74.1710 O   0  0  0  0  0  0
   22.9211   27.4596   73.6952 O   0  0  0  0  0  0
   23.4653   26.8558   74.1614 H   0  0  0  0  0  0
  1  2  1  0  0  0
  1  3  1  0  0  0
  1  4  1  0  0  0
  1  5  1  0  0  0
  5  6  2  0  0  0
  5 16  1  0  0  0
  6  7  1  0  0  0
  6  9  1  0  0  0
  7  8  1  0  0  0
  9 10  2  0  0  0
 10 11  1  0  0  0
 11 12  2  0  0  0
 11 16  1  0  0  0
 12 13  1  0  0  0
 12 17  1  0  0  0
 13 14  2  0  0  0
 14 15  1  0  0  0
 15 16  2  0  0  0
 17 18  2  0  0  0
 17 19  1  0  0  0
 19 20  1  0  0  0
 19 21  1  0  0  0
 21 22  1  0  0  0
 22 23  2  0  0  0
 22 24  1  0  0  0
 24 25  1  0  0  0
M  END
>  <CHROM.0>
-19.77473340,27.32538139,-6.02847590,119.01335788,-161.22166282,-171.60246561
116.67718948,73.45015612,-61.18859492,-61.54190337,-64.81570347,-61.41326028
-60.50081437,147.95908769

>  <CHROM.1>
-1.52503042,-102.87040832,-85.48246167,-89.31315447,-118.92850592,134.40758360
19.01656400,28.67153307,70.02536713,2.49361227,0.04417320,-1.49387648

>  <FORMUL>
      TOL    C16 H14 F3 N1 O3 S1

>  <HET>
 TOL  A 320      24

>  <HETNAM>
     TOL TOLRESTAT

>  <Name>
TOL.pdb

>  <RI>
0

>  <Rbt.Current_Directory>
/home/malgorzata/Desktop/rDOCK_IFD/test

>  <Rbt.Executable>
rbdock ($Id: //depot/dev/client3/rdock/2013.1/src/exe/rbdock.cxx#4 $)

>  <Rbt.Library>
libRbt.so (2013.1, Build901 2013/11/27)

>  <Rbt.Parameter_File>
/home/malgorzata/Desktop/rDock_2013.1_src/data/scripts/soft_docking.prm

>  <Rbt.Receptor>
cavity.prm

>  <SCORE>
-38.0609

>  <SCORE.INTER>
-24.2158

>  <SCORE.INTER.CONST>
1

>  <SCORE.INTER.POLAR>
-0.980615

>  <SCORE.INTER.REPUL>
0.602991

>  <SCORE.INTER.ROT>
5

>  <SCORE.INTER.VDW>
-34.2966

>  <SCORE.INTER.norm>
-1.00899

>  <SCORE.INTRA>
-4.43713

>  <SCORE.INTRA.DIHEDRAL>
16.6238

>  <SCORE.INTRA.DIHEDRAL.0>
16.9783

>  <SCORE.INTRA.POLAR>
0

>  <SCORE.INTRA.POLAR.0>
0

>  <SCORE.INTRA.REPUL>
0

>  <SCORE.INTRA.REPUL.0>
0

>  <SCORE.INTRA.VDW>
-7.76189

>  <SCORE.INTRA.VDW.0>
4.87734

>  <SCORE.INTRA.norm>
-0.18488

>  <SCORE.RESTR>
0.0257728

>  <SCORE.RESTR.CAVITY>
0.0257728

>  <SCORE.RESTR.norm>
0.00107387

>  <SCORE.SYSTEM>
-9.43376

>  <SCORE.SYSTEM.CONST>
0

>  <SCORE.SYSTEM.DIHEDRAL>
11.7443

>  <SCORE.SYSTEM.POLAR>
-4.3124

>  <SCORE.SYSTEM.REPUL>
1.16943

>  <SCORE.SYSTEM.VDW>
-6.49093

>  <SCORE.SYSTEM.norm>
-0.393074

>  <SCORE.heavy>
24

>  <SCORE.norm>
-1.58587

$$$$
TOL.pdb
  rDOCK(R)          3D
libRbt.so/2013.1/901 2013/11/27
 25 26  0  0  0  0  0  0  0  0999 V2000
   16.2366   30.0798   65.4816 C   0  0  0  0  0  0
   15.2590   29.1777   65.7487 F   0  0  0  0  0  0
   16.4395   30.0561   64.1376 F   0  0  0  0  0  0
   15.7666   31.3161   65.7970 F   0  0  0  0  0  0
   17.5278   29.7683   66.2690 C   0  0  0  0  0  0
   18.8002   29.5967   65.6643 C   0  0  0  0  0  0
   18.9208   29.7036   64.3534 O   0  0  0  0  0  0
   18.9420   28.4473   63.6959 C   0  0  0  0  0  0
   19.9194   29.3101   66.4763 C   0  0  0  0  0  0
   19.7867   29.1950   67.8647 C   0  0  0  0  0  0
   18.5248   29.3623   68.4684 C   0  0  0  0  0  0
   18.4039   29.2420   69.8727 C   0  0  0  0  0  0
   17.1458   29.4100   70.4741 C   0  0  0  0  0  0
   16.0215   29.6920   69.6948 C   0  0  0  0  0  0
   16.1465   29.8108   68.3049 C   0  0  0  0  0  0
   17.3956   29.6477   67.6778 C   0  0  0  0  0  0
   19.5647   28.9398   70.7908 C   0  0  0  0  0  0
   20.2857   30.2115   71.6848 S   0  0  0  0  0  0
   20.0045   27.6857   70.9053 N   0  0  0  0  0  0
   19.3056   26.6064   70.2164 C   0  0  0  0  0  0
   21.1663   27.3536   71.7237 C   0  0  0  0  0  0
   22.4610   27.9378   71.1331 C   0  0  0  0  0  0
   22.5394   28.2966   69.9877 O   0  0  0  0  0  0
   23.4903   28.0260   71.9829 O   0  0  0  0  0  0
   24.3674   27.9281   71.6681 H   0  0  0  0  0  0
  1  2  1  0  0  0
  1  3  1  0  0  0
  1  4  1  0  0  0
  1  5  1  0  0  0
  5  6  2  0  0  0
  5 16  1  0  0  0
  6  7  1  0  0  0
  6  9  1  0  0  0
  7  8  1  0  0  0
  9 10  2  0  0  0
 10 11  1  0  0  0
 11 12  2  0  0  0
 11 16  1  0  0  0
 12 13  1  0  0  0
 12 17  1  0  0  0
 13 14  2  0  0  0
 14 15  1  0  0  0
 15 16  2  0  0  0
 17 18  2  0  0  0
 17 19  1  0  0  0
 19 20  1  0  0  0
 19 21  1  0  0  0
 21 22  1  0  0  0
 22 23  2  0  0  0
 22 24  1  0  0  0
 24 25  1  0  0  0
M  END
>  <CHROM.0>
4.98885640,-23.59677213,-69.93571431,-165.71008016,-123.93141126,-59.40696870
141.56694279,-9.61105680,-61.18859492,-61.54190337,55.48379716,-61.41326028
-60.50081437,96.56181411

>  <CHROM.1>
125.14037306,-98.99075647,101.62337453,-67.27708135,-18.27582195,147.89347660
18.79281071,29.18529921,68.32322133,2.23955278,0.29668801,-1.55556934

>  <FORMUL>
      TOL    C16 H14 F3 N1 O3 S1

>  <HET>
 TOL  A 320      24

>  <HETNAM>
     TOL TOLRESTAT

>  <Name>
TOL.pdb

>  <RI>
0

>  <Rbt.Current_Directory>
/home/malgorzata/Desktop/rDOCK_IFD/test

>  <Rbt.Executable>
rbdock ($Id: //depot/dev/client3/rdock/2013.1/src/exe/rbdock.cxx#4 $)

>  <Rbt.Library>
libRbt.so (2013.1, Build901 2013/11/27)

>  <Rbt.Parameter_File>
/home/malgorzata/Desktop/rDock_2013.1_src/data/scripts/soft_docking.prm

>  <Rbt.Receptor>
cavity.prm

>  <SCORE>
-38.8489

>  <SCORE.INTER>
-28.3414

>  <SCORE.INTER.CONST>
1

>  <SCORE.INTER.POLAR>
-0.0953863

>  <SCORE.INTER.REPUL>
0

>  <SCORE.INTER.ROT>
5

>  <SCORE.INTER.VDW>
-38.4171

>  <SCORE.INTER.norm>
-1.18089

>  <SCORE.INTRA>
-5.52114

>  <SCORE.INTRA.DIHEDRAL>
11.07

>  <SCORE.INTRA.DIHEDRAL.0>
16.9783

>  <SCORE.INTRA.POLAR>
0

>  <SCORE.INTRA.POLAR.0>
0

>  <SCORE.INTRA.REPUL>
0

>  <SCORE.INTRA.REPUL.0>
0

>  <SCORE.INTRA.VDW>
-7.73514

>  <SCORE.INTRA.VDW.0>
4.87734

>  <SCORE.INTRA.norm>
-0.230048

>  <SCORE.RESTR>
0

>  <SCORE.RESTR.CAVITY>
0

>  <SCORE.RESTR.norm>
0

>  <SCORE.SYSTEM>
-4.98639

>  <SCORE.SYSTEM.CONST>
0

>  <SCORE.SYSTEM.DIHEDRAL>
14.1775

>  <SCORE.SYSTEM.POLAR>
-3.08329

>  <SCORE.SYSTEM.REPUL>
1.16943

>  <SCORE.SYSTEM.VDW>
-7.4391

>  <SCORE.SYSTEM.norm>
-0.207766

>  <SCORE.heavy>
24

>  <SCORE.norm>
-1.6187

$$$$
TOL.pdb
  rDOCK(R)          3D
libRbt.so/2013.1/901 2013/11/27
 25 26  0  0  0  0  0  0  0  0999 V2000
   16.1614   29.5026   65.5794 C   0  0  0  0  0  0
   16.2927   29.4718   64.2294 F   0  0  0  0  0  0
   15.9505   30.8000   65.9263 F   0  0  0  0  0  0
   15.0393   28.8092   65.9095 F   0  0  0  0  0  0
   17.3994   28.9074   66.2846 C   0  0  0  0  0  0
   18.5014   28.3353   65.5973 C   0  0  0  0  0  0
   18.4989   28.2944   64.2772 O   0  0  0  0  0  0
   18.4362   26.9735   63.7650 C   0  0  0  0  0  0
   19.5845   27.8143   66.3386 C   0  0  0  0  0  0
   19.5820   27.8571   67.7374 C   0  0  0  0  0  0
   18.4887   28.4220   68.4233 C   0  0  0  0  0  0
   18.4977   28.4579   69.8374 C   0  0  0  0  0  0
   17.4080   29.0223   70.5206 C   0  0  0  0  0  0
   16.3225   29.5430   69.8126 C   0  0  0  0  0  0
   16.3185   29.5058   68.4126 C   0  0  0  0  0  0
   17.3981   28.9465   67.7041 C   0  0  0  0  0  0
   19.6283   27.9191   70.6820 C   0  0  0  0  0  0
   19.7574   26.2300   70.9394 S   0  0  0  0  0  0
   20.5198   28.7627   71.2044 N   0  0  0  0  0  0
   20.4491   30.1837   70.8821 C   0  0  0  0  0  0
   21.5881   28.2995   72.0842 C   0  0  0  0  0  0
   22.7472   27.6759   71.2880 C   0  0  0  0  0  0
   22.6280   26.6432   70.6828 O   0  0  0  0  0  0
   23.8937   28.3648   71.3094 O   0  0  0  0  0  0
   24.6950   27.9488   71.0587 H   0  0  0  0  0  0
  1  2  1  0  0  0
  1  3  1  0  0  0
  1  4  1  0  0  0
  1  5  1  0  0  0
  5  6  2  0  0  0
  5 16  1  0  0  0
  6  7  1  0  0  0
  6  9  1  0  0  0
  7  8  1  0  0  0
  9 10  2  0  0  0
 10 11  1  0  0  0
 11 12  2  0  0  0
 11 16  1  0  0  0
 12 13  1  0  0  0
 12 17  1  0  0  0
 13 14  2  0  0  0
 14 15  1  0  0  0
 15 16  2  0  0  0
 17 18  2  0  0  0
 17 19  1  0  0  0
 19 20  1  0  0  0
 19 21  1  0  0  0
 21 22  1  0  0  0
 22 23  2  0  0  0
 22 24  1  0  0  0
 24 25  1  0  0  0
M  END
>  <CHROM.0>
-7.10970312,-169.71435956,85.40368959,172.65818965,40.94729339,45.81240138
45.48277889,-68.61760956,-61.18859492,-61.54190337,-154.42566215,-61.41326028
-60.50081437,79.46123214

>  <CHROM.1>
-3.17537492,-113.81306754,-78.27296020,79.17559656,-67.57552312,163.06489974
18.80737693,28.44668191,68.33082789,2.34057572,0.42189384,-1.73224435

>  <FORMUL>
      TOL    C16 H14 F3 N1 O3 S1

>  <HET>
 TOL  A 320      24

>  <HETNAM>
     TOL TOLRESTAT

>  <Name>
TOL.pdb

>  <RI>
0

>  <Rbt.Current_Directory>
/home/malgorzata/Desktop/rDOCK_IFD/test

>  <Rbt.Executable>
rbdock ($Id: //depot/dev/client3/rdock/2013.1/src/exe/rbdock.cxx#4 $)

>  <Rbt.Library>
libRbt.so (2013.1, Build901 2013/11/27)

>  <Rbt.Parameter_File>
/home/malgorzata/Desktop/rDock_2013.1_src/data/scripts/soft_docking.prm

>  <Rbt.Receptor>
cavity.prm

>  <SCORE>
-43.9714

>  <SCORE.INTER>
-32.5026

>  <SCORE.INTER.CONST>
1

>  <SCORE.INTER.POLAR>
-2.59409

>  <SCORE.INTER.REPUL>
0.462882

>  <SCORE.INTER.ROT>
5

>  <SCORE.INTER.VDW>
-36.3971

>  <SCORE.INTER.norm>
-1.35427

>  <SCORE.INTRA>
-5.63369

>  <SCORE.INTRA.DIHEDRAL>
5.84218

>  <SCORE.INTRA.DIHEDRAL.0>
16.9783

>  <SCORE.INTRA.POLAR>
0

>  <SCORE.INTRA.POLAR.0>
0

>  <SCORE.INTRA.REPUL>
0

>  <SCORE.INTRA.REPUL.0>
0

>  <SCORE.INTRA.VDW>
-6.80213

>  <SCORE.INTRA.VDW.0>
4.87734

>  <SCORE.INTRA.norm>
-0.234737

>  <SCORE.RESTR>
0

>  <SCORE.RESTR.CAVITY>
0

>  <SCORE.RESTR.norm>
0

>  <SCORE.SYSTEM>
-5.83511

>  <SCORE.SYSTEM.CONST>
0

>  <SCORE.SYSTEM.DIHEDRAL>
7.58807

>  <SCORE.SYSTEM.POLAR>
-2.37541

>  <SCORE.SYSTEM.REPUL>
1.16943

>  <SCORE.SYSTEM.VDW>
-7.3999

>  <SCORE.SYSTEM.norm>
-0.243129

>  <SCORE.heavy>
24

>  <SCORE.norm>
-1.83214

$$$$
TOL.pdb
  rDOCK(R)          3D
libRbt.so/2013.1/901 2013/11/27
 25 26  0  0  0  0  0  0  0  0999 V2000
   16.2263   29.4738   65.0349 C   0  0  0  0  0  0
   15.5630   28.3026   64.8640 F   0  0  0  0  0  0
   16.4560   29.9822   63.7952 F   0  0  0  0  0  0
   15.3966   30.3379   65.6780 F   0  0  0  0  0  0
   17.5337   29.2753   65.8320 C   0  0  0  0  0  0
   18.8000   29.0538   65.2307 C   0  0  0  0  0  0
   18.9000   29.0094   63.9145 O   0  0  0  0  0  0
   18.5779   27.7368   63.3781 C   0  0  0  0  0  0
   19.9354   28.8803   66.0522 C   0  0  0  0  0  0
   19.8247   28.9253   67.4466 C   0  0  0  0  0  0
   18.5689   29.1425   68.0473 C   0  0  0  0  0  0
   18.4701   29.1844   69.4577 C   0  0  0  0  0  0
   17.2182   29.4022   70.0559 C   0  0  0  0  0  0
   16.0782   29.5748   69.2675 C   0  0  0  0  0  0
   16.1812   29.5333   67.8714 C   0  0  0  0  0  0
   17.4238   29.3172   67.2472 C   0  0  0  0  0  0
   19.6490   29.0084   70.3857 C   0  0  0  0  0  0
   20.3707   30.3873   71.1026 S   0  0  0  0  0  0
   20.1040   27.7820   70.6470 N   0  0  0  0  0  0
   19.4056   26.6196   70.1093 C   0  0  0  0  0  0
   21.2824   27.5639   71.4798 C   0  0  0  0  0  0
   22.5564   27.4143   70.6306 C   0  0  0  0  0  0
   23.3124   28.3304   70.4403 O   0  0  0  0  0  0
   22.7687   26.1942   70.1252 O   0  0  0  0  0  0
   22.1770   25.4953   70.3238 H   0  0  0  0  0  0
  1  2  1  0  0  0
  1  3  1  0  0  0
  1  4  1  0  0  0
  1  5  1  0  0  0
  5  6  2  0  0  0
  5 16  1  0  0  0
  6  7  1  0  0  0
  6  9  1  0  0  0
  7  8  1  0  0  0
  9 10  2  0  0  0
 10 11  1  0  0  0
 11 12  2  0  0  0
 11 16  1  0  0  0
 12 13  1  0  0  0
 12 17  1  0  0  0
 13 14  2  0  0  0
 14 15  1  0  0  0
 15 16  2  0  0  0
 17 18  2  0  0  0
 17 19  1  0  0  0
 19 20  1  0  0  0
 19 21  1  0  0  0
 21 22  1  0  0  0
 22 23  2  0  0  0
 22 24  1  0  0  0
 24 25  1  0  0  0
M  END
>  <CHROM.0>
-28.30434805,63.44170165,145.21161046,99.84955176,176.16747359,176.24715648
143.39148921,165.45601695,-61.18859492,-61.54190337,44.85663153,-61.41326028
-60.50081437,85.49121705

>  <CHROM.1>
93.20200153,-83.15435523,101.03792699,-95.11931250,97.81303617,-2.20081408
18.80882020,28.83181393,67.88087356,2.30088751,0.41312603,-1.72198378

>  <FORMUL>
      TOL    C16 H14 F3 N1 O3 S1

>  <HET>
 TOL  A 320      24

>  <HETNAM>
     TOL TOLRESTAT

>  <Name>
TOL.pdb

>  <RI>
0

>  <Rbt.Current_Directory>
/home/malgorzata/Desktop/rDOCK_IFD/test

>  <Rbt.Executable>
rbdock ($Id: //depot/dev/client3/rdock/2013.1/src/exe/rbdock.cxx#4 $)

>  <Rbt.Library>
libRbt.so (2013.1, Build901 2013/11/27)

>  <Rbt.Parameter_File>
/home/malgorzata/Desktop/rDock_2013.1_src/data/scripts/soft_docking.prm

>  <Rbt.Receptor>
cavity.prm

>  <SCORE>
-46.9434

>  <SCORE.INTER>
-31.6627

>  <SCORE.INTER.CONST>
1

>  <SCORE.INTER.POLAR>
-1.3099

>  <SCORE.INTER.REPUL>
0.187404

>  <SCORE.INTER.ROT>
5

>  <SCORE.INTER.VDW>
-38.5461

>  <SCORE.INTER.norm>
-1.31928

>  <SCORE.INTRA>
-5.10603

>  <SCORE.INTRA.DIHEDRAL>
4.56705

>  <SCORE.INTRA.DIHEDRAL.0>
16.9783

>  <SCORE.INTRA.POLAR>
0

>  <SCORE.INTRA.POLAR.0>
0

>  <SCORE.INTRA.REPUL>
0

>  <SCORE.INTRA.REPUL.0>
0

>  <SCORE.INTRA.VDW>
-6.01944

>  <SCORE.INTRA.VDW.0>
4.87734

>  <SCORE.INTRA.norm>
-0.212751

>  <SCORE.RESTR>
0

>  <SCORE.RESTR.CAVITY>
0

>  <SCORE.RESTR.norm>
0

>  <SCORE.SYSTEM>
-10.1747

>  <SCORE.SYSTEM.CONST>
0

>  <SCORE.SYSTEM.DIHEDRAL>
8.43127

>  <SCORE.SYSTEM.POLAR>
-3.79829

>  <SCORE.SYSTEM.REPUL>
1.16943

>  <SCORE.SYSTEM.VDW>
-7.32329

>  <SCORE.SYSTEM.norm>
-0.423944

>  <SCORE.heavy>
24

>  <SCORE.norm>
-1.95597

$$$$
