TOL.pdb
  rDOCK(R)          3D
libRbt.so/2013.1/901 2013/11/27
 25 26  0  0  0  0  0  0  0  0999 V2000
   16.1309   29.6617   63.7889 C   0  0  0  0  0  0
   16.0168   29.0946   62.5616 F   0  0  0  0  0  0
   16.5522   30.9398   63.5959 F   0  0  0  0  0  0
   14.8899   29.7250   64.3408 F   0  0  0  0  0  0
   17.0929   28.8644   64.6961 C   0  0  0  0  0  0
   17.9220   27.8092   64.2345 C   0  0  0  0  0  0
   17.8928   27.4644   62.9599 O   0  0  0  0  0  0
   17.1248   26.2967   62.7204 C   0  0  0  0  0  0
   18.7648   27.1404   65.1493 C   0  0  0  0  0  0
   18.7907   27.5070   66.4996 C   0  0  0  0  0  0
   17.9672   28.5525   66.9621 C   0  0  0  0  0  0
   18.0017   28.9124   68.3297 C   0  0  0  0  0  0
   17.1814   29.9555   68.7899 C   0  0  0  0  0  0
   16.3366   30.6326   67.9074 C   0  0  0  0  0  0
   16.3066   30.2731   66.5542 C   0  0  0  0  0  0
   17.1189   29.2320   66.0676 C   0  0  0  0  0  0
   18.8838   28.2355   69.3522 C   0  0  0  0  0  0
   20.5563   28.6052   69.3995 S   0  0  0  0  0  0
   18.3479   27.3701   70.2144 N   0  0  0  0  0  0
   16.9053   27.1540   70.2228 C   0  0  0  0  0  0
   19.1684   26.6379   71.1739 C   0  0  0  0  0  0
   20.2673   25.8212   70.4726 C   0  0  0  0  0  0
   20.0161   24.8817   69.7647 O   0  0  0  0  0  0
   21.5200   26.2325   70.6985 O   0  0  0  0  0  0
   22.2090   25.9770   70.1171 H   0  0  0  0  0  0
  1  2  1  0  0  0
  1  3  1  0  0  0
  1  4  1  0  0  0
  1  5  1  0  0  0
  5  6  2  0  0  0
  5 16  1  0  0  0
  6  7  1  0  0  0
  6  9  1  0  0  0
  7  8  1  0  0  0
  9 10  2  0  0  0
 10 11  1  0  0  0
 11 12  2  0  0  0
 11 16  1  0  0  0
 12 13  1  0  0  0
 12 17  1  0  0  0
 13 14  2  0  0  0
 14 15  1  0  0  0
 15 16  2  0  0  0
 17 18  2  0  0  0
 17 19  1  0  0  0
 19 20  1  0  0  0
 19 21  1  0  0  0
 21 22  1  0  0  0
 22 23  2  0  0  0
 22 24  1  0  0  0
 24 25  1  0  0  0
M  END
>  <CHROM.0>
-15.68275305,45.35571062,-51.63813934,57.46119204,162.36059674,-47.33050307
102.73654593,167.64211615,-61.18859492,-61.54190337,157.56706254,-61.41326028
-60.50081437,153.52738951

>  <CHROM.1>
9.90318964,-101.37652589,76.63039702,-57.06330165,-66.85599092,-160.72714193
17.99703006,28.23114070,66.94553264,2.34980449,0.89659927,-1.90525830

>  <FORMUL>
      TOL    C16 H14 F3 N1 O3 S1

>  <HET>
 TOL  A 320      24

>  <HETNAM>
     TOL TOLRESTAT

>  <Name>
TOL.pdb

>  <RI>
0

>  <Rbt.Current_Directory>
/home/malgorzata/Desktop/rDOCK_IFD/Wyniki/1a_aldose_reductase

>  <Rbt.Executable>
rbdock ($Id: //depot/dev/client3/rdock/2013.1/src/exe/rbdock.cxx#4 $)

>  <Rbt.Library>
libRbt.so (2013.1, Build901 2013/11/27)

>  <Rbt.Parameter_File>
/home/malgorzata/Desktop/rDock_2013.1_src/data/scripts/soft_docking.prm

>  <Rbt.Receptor>
cavity.prm

>  <SCORE>
-37.6424

>  <SCORE.INTER>
-24.2978

>  <SCORE.INTER.CONST>
1

>  <SCORE.INTER.POLAR>
-0.90104

>  <SCORE.INTER.REPUL>
0.0803149

>  <SCORE.INTER.ROT>
5

>  <SCORE.INTER.VDW>
-32.0359

>  <SCORE.INTER.norm>
-1.01241

>  <SCORE.INTRA>
-5.07799

>  <SCORE.INTRA.DIHEDRAL>
6.65839

>  <SCORE.INTRA.DIHEDRAL.0>
16.9783

>  <SCORE.INTRA.POLAR>
0

>  <SCORE.INTRA.POLAR.0>
0

>  <SCORE.INTRA.REPUL>
0

>  <SCORE.INTRA.REPUL.0>
0

>  <SCORE.INTRA.VDW>
-6.40967

>  <SCORE.INTRA.VDW.0>
4.87734

>  <SCORE.INTRA.norm>
-0.211583

>  <SCORE.RESTR>
0.124131

>  <SCORE.RESTR.CAVITY>
0.0248262

>  <SCORE.RESTR.norm>
0.00517212

>  <SCORE.SYSTEM>
-8.39075

>  <SCORE.SYSTEM.CONST>
0

>  <SCORE.SYSTEM.DIHEDRAL>
11.1004

>  <SCORE.SYSTEM.POLAR>
-3.59786

>  <SCORE.SYSTEM.REPUL>
1.16943

>  <SCORE.SYSTEM.VDW>
-7.55541

>  <SCORE.SYSTEM.norm>
-0.349615

>  <SCORE.heavy>
24

>  <SCORE.norm>
-1.56844

$$$$
TOL.pdb
  rDOCK(R)          3D
libRbt.so/2013.1/901 2013/11/27
 25 26  0  0  0  0  0  0  0  0999 V2000
   23.7829   28.9653   71.8257 C   0  0  0  0  0  0
   24.8980   28.2780   71.4723 F   0  0  0  0  0  0
   23.7178   28.9413   73.1834 F   0  0  0  0  0  0
   23.9512   30.2620   71.4527 F   0  0  0  0  0  0
   22.5169   28.3685   71.1735 C   0  0  0  0  0  0
   22.4559   27.0661   70.6130 C   0  0  0  0  0  0
   23.5272   26.2941   70.6346 O   0  0  0  0  0  0
   23.4104   25.2115   71.5431 C   0  0  0  0  0  0
   21.2477   26.6169   70.0362 C   0  0  0  0  0  0
   20.1155   27.4391   70.0129 C   0  0  0  0  0  0
   20.1730   28.7336   70.5662 C   0  0  0  0  0  0
   19.0220   29.5554   70.5350 C   0  0  0  0  0  0
   19.0796   30.8452   71.0878 C   0  0  0  0  0  0
   20.2623   31.3160   71.6628 C   0  0  0  0  0  0
   21.3989   30.4983   71.6919 C   0  0  0  0  0  0
   21.3674   29.2019   71.1455 C   0  0  0  0  0  0
   17.7034   29.1279   69.9347 C   0  0  0  0  0  0
   16.3551   28.8685   70.9598 S   0  0  0  0  0  0
   17.6009   28.9720   68.6139 N   0  0  0  0  0  0
   18.7325   29.3025   67.7547 C   0  0  0  0  0  0
   16.3702   28.4930   67.9927 C   0  0  0  0  0  0
   15.8036   29.5172   66.9946 C   0  0  0  0  0  0
   16.1909   29.5881   65.8579 O   0  0  0  0  0  0
   14.8461   30.3178   67.4757 O   0  0  0  0  0  0
   14.5974   30.2613   68.3774 H   0  0  0  0  0  0
  1  2  1  0  0  0
  1  3  1  0  0  0
  1  4  1  0  0  0
  1  5  1  0  0  0
  5  6  2  0  0  0
  5 16  1  0  0  0
  6  7  1  0  0  0
  6  9  1  0  0  0
  7  8  1  0  0  0
  9 10  2  0  0  0
 10 11  1  0  0  0
 11 12  2  0  0  0
 11 16  1  0  0  0
 12 13  1  0  0  0
 12 17  1  0  0  0
 13 14  2  0  0  0
 14 15  1  0  0  0
 15 16  2  0  0  0
 17 18  2  0  0  0
 17 19  1  0  0  0
 19 20  1  0  0  0
 19 21  1  0  0  0
 21 22  1  0  0  0
 22 23  2  0  0  0
 22 24  1  0  0  0
 24 25  1  0  0  0
M  END
>  <CHROM.0>
7.85417076,98.28626841,-133.84471462,156.35741879,-46.22140082,84.14817775
148.60462748,100.30260656,-61.18859492,-61.54190337,-157.91717975,-61.41326028
-60.50081437,64.66284010

>  <CHROM.1>
17.32039598,108.81466103,111.55930777,120.33779018,83.77441808,3.21502344
20.10773256,28.82715382,70.23089055,0.09683356,-0.45786783,0.57248121

>  <FORMUL>
      TOL    C16 H14 F3 N1 O3 S1

>  <HET>
 TOL  A 320      24

>  <HETNAM>
     TOL TOLRESTAT

>  <Name>
TOL.pdb

>  <RI>
0

>  <Rbt.Current_Directory>
/home/malgorzata/Desktop/rDOCK_IFD/Wyniki/1a_aldose_reductase

>  <Rbt.Executable>
rbdock ($Id: //depot/dev/client3/rdock/2013.1/src/exe/rbdock.cxx#4 $)

>  <Rbt.Library>
libRbt.so (2013.1, Build901 2013/11/27)

>  <Rbt.Parameter_File>
/home/malgorzata/Desktop/rDock_2013.1_src/data/scripts/soft_docking.prm

>  <Rbt.Receptor>
cavity.prm

>  <SCORE>
-45.6463

>  <SCORE.INTER>
-36.2956

>  <SCORE.INTER.CONST>
1

>  <SCORE.INTER.POLAR>
-3.38814

>  <SCORE.INTER.REPUL>
0.0167949

>  <SCORE.INTER.ROT>
5

>  <SCORE.INTER.VDW>
-35.2599

>  <SCORE.INTER.norm>
-1.51232

>  <SCORE.INTRA>
-4.81291

>  <SCORE.INTRA.DIHEDRAL>
2.96842

>  <SCORE.INTRA.DIHEDRAL.0>
16.9783

>  <SCORE.INTRA.POLAR>
0

>  <SCORE.INTRA.POLAR.0>
0

>  <SCORE.INTRA.REPUL>
0

>  <SCORE.INTRA.REPUL.0>
0

>  <SCORE.INTRA.VDW>
-5.4066

>  <SCORE.INTRA.VDW.0>
4.87734

>  <SCORE.INTRA.norm>
-0.200538

>  <SCORE.RESTR>
2.36086

>  <SCORE.RESTR.CAVITY>
0.472171

>  <SCORE.RESTR.norm>
0.0983691

>  <SCORE.SYSTEM>
-6.89859

>  <SCORE.SYSTEM.CONST>
0

>  <SCORE.SYSTEM.DIHEDRAL>
12.9936

>  <SCORE.SYSTEM.POLAR>
-3.65787

>  <SCORE.SYSTEM.REPUL>
1.29001

>  <SCORE.SYSTEM.VDW>
-7.40868

>  <SCORE.SYSTEM.norm>
-0.287441

>  <SCORE.heavy>
24

>  <SCORE.norm>
-1.90193

$$$$
TOL.pdb
  rDOCK(R)          3D
libRbt.so/2013.1/901 2013/11/27
 25 26  0  0  0  0  0  0  0  0999 V2000
   18.6946   26.5212   62.1555 C   0  0  0  0  0  0
   19.6606   27.4640   62.0179 F   0  0  0  0  0  0
   18.1078   26.3763   60.9378 F   0  0  0  0  0  0
   19.2981   25.3404   62.4556 F   0  0  0  0  0  0
   17.6749   26.9078   63.2486 C   0  0  0  0  0  0
   16.2681   26.8760   63.0638 C   0  0  0  0  0  0
   15.7698   26.4981   61.9005 O   0  0  0  0  0  0
   15.1951   25.2024   61.9399 C   0  0  0  0  0  0
   15.4215   27.2536   64.1291 C   0  0  0  0  0  0
   15.9536   27.6560   65.3593 C   0  0  0  0  0  0
   17.3496   27.6912   65.5458 C   0  0  0  0  0  0
   17.8749   28.1012   66.7936 C   0  0  0  0  0  0
   19.2667   28.1349   66.9792 C   0  0  0  0  0  0
   20.1275   27.7688   65.9420 C   0  0  0  0  0  0
   19.6026   27.3628   64.7086 C   0  0  0  0  0  0
   18.2121   27.3197   64.4970 C   0  0  0  0  0  0
   17.0191   28.5130   67.9683 C   0  0  0  0  0  0
   16.1363   29.9798   67.8950 S   0  0  0  0  0  0
   16.9498   27.7234   69.0412 N   0  0  0  0  0  0
   17.6251   26.4305   69.0350 C   0  0  0  0  0  0
   16.1941   28.1099   70.2285 C   0  0  0  0  0  0
   17.1216   28.3956   71.4220 C   0  0  0  0  0  0
   17.2813   27.6053   72.3146 O   0  0  0  0  0  0
   17.7431   29.5798   71.3947 O   0  0  0  0  0  0
   18.4719   29.7396   71.9615 H   0  0  0  0  0  0
  1  2  1  0  0  0
  1  3  1  0  0  0
  1  4  1  0  0  0
  1  5  1  0  0  0
  5  6  2  0  0  0
  5 16  1  0  0  0
  6  7  1  0  0  0
  6  9  1  0  0  0
  7  8  1  0  0  0
  9 10  2  0  0  0
 10 11  1  0  0  0
 11 12  2  0  0  0
 11 16  1  0  0  0
 12 13  1  0  0  0
 12 17  1  0  0  0
 13 14  2  0  0  0
 14 15  1  0  0  0
 15 16  2  0  0  0
 17 18  2  0  0  0
 17 19  1  0  0  0
 19 20  1  0  0  0
 19 21  1  0  0  0
 21 22  1  0  0  0
 22 23  2  0  0  0
 22 24  1  0  0  0
 24 25  1  0  0  0
M  END
>  <CHROM.0>
-96.54176219,179.71075637,134.07987768,149.30705726,-175.81781073,-77.34906550
120.34043831,-48.58340495,-61.18859492,-61.54190337,51.32422564,-61.41326028
-60.50081437,-178.20514071

>  <CHROM.1>
130.65140308,106.37399604,-69.49325023,-111.46135285,-102.06754094,-164.95899961
17.49410711,27.53191281,65.88426008,-1.49478311,-0.03754789,1.32130622

>  <FORMUL>
      TOL    C16 H14 F3 N1 O3 S1

>  <HET>
 TOL  A 320      24

>  <HETNAM>
     TOL TOLRESTAT

>  <Name>
TOL.pdb

>  <RI>
0

>  <Rbt.Current_Directory>
/home/malgorzata/Desktop/rDOCK_IFD/Wyniki/1a_aldose_reductase

>  <Rbt.Executable>
rbdock ($Id: //depot/dev/client3/rdock/2013.1/src/exe/rbdock.cxx#4 $)

>  <Rbt.Library>
libRbt.so (2013.1, Build901 2013/11/27)

>  <Rbt.Parameter_File>
/home/malgorzata/Desktop/rDock_2013.1_src/data/scripts/soft_docking.prm

>  <Rbt.Receptor>
cavity.prm

>  <SCORE>
-36.6073

>  <SCORE.INTER>
-25.975

>  <SCORE.INTER.CONST>
1

>  <SCORE.INTER.POLAR>
-2.03185

>  <SCORE.INTER.REPUL>
0

>  <SCORE.INTER.ROT>
5

>  <SCORE.INTER.VDW>
-29.4667

>  <SCORE.INTER.norm>
-1.08229

>  <SCORE.INTRA>
-5.68008

>  <SCORE.INTRA.DIHEDRAL>
4.6676

>  <SCORE.INTRA.DIHEDRAL.0>
16.9783

>  <SCORE.INTRA.POLAR>
0

>  <SCORE.INTRA.POLAR.0>
0

>  <SCORE.INTRA.REPUL>
0

>  <SCORE.INTRA.REPUL.0>
0

>  <SCORE.INTRA.VDW>
-6.6136

>  <SCORE.INTRA.VDW.0>
4.87734

>  <SCORE.INTRA.norm>
-0.23667

>  <SCORE.RESTR>
1.44858

>  <SCORE.RESTR.CAVITY>
0.289716

>  <SCORE.RESTR.norm>
0.0603575

>  <SCORE.SYSTEM>
-6.40082

>  <SCORE.SYSTEM.CONST>
0

>  <SCORE.SYSTEM.DIHEDRAL>
9.31842

>  <SCORE.SYSTEM.POLAR>
-2.96145

>  <SCORE.SYSTEM.REPUL>
1.16943

>  <SCORE.SYSTEM.VDW>
-6.83827

>  <SCORE.SYSTEM.norm>
-0.266701

>  <SCORE.heavy>
24

>  <SCORE.norm>
-1.5253

$$$$
TOL.pdb
  rDOCK(R)          3D
libRbt.so/2013.1/901 2013/11/27
 25 26  0  0  0  0  0  0  0  0999 V2000
   17.5906   29.6337   62.4949 C   0  0  0  0  0  0
   17.8886   28.9461   61.3639 F   0  0  0  0  0  0
   18.4018   30.7243   62.5195 F   0  0  0  0  0  0
   16.3120   30.0841   62.3896 F   0  0  0  0  0  0
   17.7595   28.7564   63.7543 C   0  0  0  0  0  0
   18.1898   27.4044   63.7237 C   0  0  0  0  0  0
   18.4704   26.8335   62.5662 O   0  0  0  0  0  0
   17.4046   26.0424   62.0672 C   0  0  0  0  0  0
   18.3080   26.6881   64.9350 C   0  0  0  0  0  0
   18.0071   27.2959   66.1592 C   0  0  0  0  0  0
   17.5772   28.6372   66.1934 C   0  0  0  0  0  0
   17.2748   29.2395   67.4371 C   0  0  0  0  0  0
   16.8475   30.5770   67.4706 C   0  0  0  0  0  0
   16.7197   31.3084   66.2875 C   0  0  0  0  0  0
   17.0211   30.7079   65.0587 C   0  0  0  0  0  0
   17.4518   29.3695   64.9977 C   0  0  0  0  0  0
   17.3851   28.5244   68.7631 C   0  0  0  0  0  0
   15.9813   27.8474   69.4752 S   0  0  0  0  0  0
   18.5753   28.4162   69.3557 N   0  0  0  0  0  0
   19.7702   28.9068   68.6780 C   0  0  0  0  0  0
   18.7230   27.7974   70.6693 C   0  0  0  0  0  0
   18.7128   26.2619   70.5765 C   0  0  0  0  0  0
   19.6623   25.6361   70.1844 O   0  0  0  0  0  0
   17.5785   25.6712   70.9687 O   0  0  0  0  0  0
   16.8066   26.1841   71.1068 H   0  0  0  0  0  0
  1  2  1  0  0  0
  1  3  1  0  0  0
  1  4  1  0  0  0
  1  5  1  0  0  0
  5  6  2  0  0  0
  5 16  1  0  0  0
  6  7  1  0  0  0
  6  9  1  0  0  0
  7  8  1  0  0  0
  9 10  2  0  0  0
 10 11  1  0  0  0
 11 12  2  0  0  0
 11 16  1  0  0  0
 12 13  1  0  0  0
 12 17  1  0  0  0
 13 14  2  0  0  0
 14 15  1  0  0  0
 15 16  2  0  0  0
 17 18  2  0  0  0
 17 19  1  0  0  0
 19 20  1  0  0  0
 19 21  1  0  0  0
 21 22  1  0  0  0
 22 23  2  0  0  0
 22 24  1  0  0  0
 24 25  1  0  0  0
M  END
>  <CHROM.0>
-5.66617317,2.38424755,105.48567791,154.80061236,-45.40208451,-177.13047023
129.33616951,-112.51665859,-61.18859492,-61.54190337,-75.35968212,-61.41326028
-60.50081437,33.57320761

>  <CHROM.1>
0.73339269,-98.49401009,-97.89020738,79.45583028,76.05736456,12.37542338
17.73620144,28.35717997,66.21559536,1.72950897,1.24456235,-1.48548408

>  <FORMUL>
      TOL    C16 H14 F3 N1 O3 S1

>  <HET>
 TOL  A 320      24

>  <HETNAM>
     TOL TOLRESTAT

>  <Name>
TOL.pdb

>  <RI>
0

>  <Rbt.Current_Directory>
/home/malgorzata/Desktop/rDOCK_IFD/Wyniki/1a_aldose_reductase

>  <Rbt.Executable>
rbdock ($Id: //depot/dev/client3/rdock/2013.1/src/exe/rbdock.cxx#4 $)

>  <Rbt.Library>
libRbt.so (2013.1, Build901 2013/11/27)

>  <Rbt.Parameter_File>
/home/malgorzata/Desktop/rDock_2013.1_src/data/scripts/soft_docking.prm

>  <Rbt.Receptor>
cavity.prm

>  <SCORE>
-44.4581

>  <SCORE.INTER>
-26.9035

>  <SCORE.INTER.CONST>
1

>  <SCORE.INTER.POLAR>
-0.979767

>  <SCORE.INTER.REPUL>
0

>  <SCORE.INTER.ROT>
5

>  <SCORE.INTER.VDW>
-33.9723

>  <SCORE.INTER.norm>
-1.12098

>  <SCORE.INTRA>
-6.78623

>  <SCORE.INTRA.DIHEDRAL>
5.79865

>  <SCORE.INTRA.DIHEDRAL.0>
16.9783

>  <SCORE.INTRA.POLAR>
-0.294087

>  <SCORE.INTRA.POLAR.0>
0

>  <SCORE.INTRA.REPUL>
0

>  <SCORE.INTRA.REPUL.0>
0

>  <SCORE.INTRA.VDW>
-6.94606

>  <SCORE.INTRA.VDW.0>
4.87734

>  <SCORE.INTRA.norm>
-0.282759

>  <SCORE.RESTR>
0.107361

>  <SCORE.RESTR.CAVITY>
0.0214722

>  <SCORE.RESTR.norm>
0.00447337

>  <SCORE.SYSTEM>
-10.8757

>  <SCORE.SYSTEM.CONST>
0

>  <SCORE.SYSTEM.DIHEDRAL>
11.6656

>  <SCORE.SYSTEM.POLAR>
-4.3355

>  <SCORE.SYSTEM.REPUL>
1.16943

>  <SCORE.SYSTEM.VDW>
-7.81498

>  <SCORE.SYSTEM.norm>
-0.453156

>  <SCORE.heavy>
24

>  <SCORE.norm>
-1.85242

$$$$
TOL.pdb
  rDOCK(R)          3D
libRbt.so/2013.1/901 2013/11/27
 25 26  0  0  0  0  0  0  0  0999 V2000
   18.4816   30.3160   69.5584 C   0  0  0  0  0  0
   17.2977   29.7199   69.8479 F   0  0  0  0  0  0
   18.2403   31.6508   69.4687 F   0  0  0  0  0  0
   19.3177   30.1271   70.6139 F   0  0  0  0  0  0
   19.1008   29.7499   68.2621 C   0  0  0  0  0  0
   20.3651   29.1078   68.2051 C   0  0  0  0  0  0
   21.0789   28.9702   69.3079 O   0  0  0  0  0  0
   21.2899   27.6139   69.6642 C   0  0  0  0  0  0
   20.8425   28.6281   66.9657 C   0  0  0  0  0  0
   20.0843   28.7784   65.7991 C   0  0  0  0  0  0
   18.8298   29.4175   65.8512 C   0  0  0  0  0  0
   18.0739   29.5644   64.6646 C   0  0  0  0  0  0
   16.8228   30.2006   64.7175 C   0  0  0  0  0  0
   16.3272   30.6865   65.9295 C   0  0  0  0  0  0
   17.0791   30.5380   67.1018 C   0  0  0  0  0  0
   18.3351   29.9039   67.0761 C   0  0  0  0  0  0
   18.5318   29.0695   63.3129 C   0  0  0  0  0  0
   19.1313   30.1901   62.1636 S   0  0  0  0  0  0
   18.4775   27.7657   63.0360 N   0  0  0  0  0  0
   18.0643   26.8218   64.0685 C   0  0  0  0  0  0
   18.8413   27.2464   61.7215 C   0  0  0  0  0  0
   17.5976   26.9282   60.8741 C   0  0  0  0  0  0
   16.7518   27.7511   60.6410 O   0  0  0  0  0  0
   17.5257   25.6761   60.4087 O   0  0  0  0  0  0
   16.7806   25.4037   59.9101 H   0  0  0  0  0  0
  1  2  1  0  0  0
  1  3  1  0  0  0
  1  4  1  0  0  0
  1  5  1  0  0  0
  5  6  2  0  0  0
  5 16  1  0  0  0
  6  7  1  0  0  0
  6  9  1  0  0  0
  7  8  1  0  0  0
  9 10  2  0  0  0
 10 11  1  0  0  0
 11 12  2  0  0  0
 11 16  1  0  0  0
 12 13  1  0  0  0
 12 17  1  0  0  0
 13 14  2  0  0  0
 14 15  1  0  0  0
 15 16  2  0  0  0
 17 18  2  0  0  0
 17 19  1  0  0  0
 19 20  1  0  0  0
 19 21  1  0  0  0
 21 22  1  0  0  0
 22 23  2  0  0  0
 22 24  1  0  0  0
 24 25  1  0  0  0
M  END
>  <CHROM.0>
-13.04642580,25.12492400,164.72570885,131.44664032,59.13953099,84.84618248
132.70904233,-145.34747835,-61.18859492,-61.54190337,-134.17396325,-61.41326028
-60.50081437,-49.97614959

>  <CHROM.1>
-119.66510056,116.91594640,-103.62868414,-101.38616432,55.90602711,177.86485180
18.61792421,29.07123559,65.73163582,1.36764681,-0.72420589,1.17041730

>  <FORMUL>
      TOL    C16 H14 F3 N1 O3 S1

>  <HET>
 TOL  A 320      24

>  <HETNAM>
     TOL TOLRESTAT

>  <Name>
TOL.pdb

>  <RI>
0

>  <Rbt.Current_Directory>
/home/malgorzata/Desktop/rDOCK_IFD/Wyniki/1a_aldose_reductase

>  <Rbt.Executable>
rbdock ($Id: //depot/dev/client3/rdock/2013.1/src/exe/rbdock.cxx#4 $)

>  <Rbt.Library>
libRbt.so (2013.1, Build901 2013/11/27)

>  <Rbt.Parameter_File>
/home/malgorzata/Desktop/rDock_2013.1_src/data/scripts/soft_docking.prm

>  <Rbt.Receptor>
cavity.prm

>  <SCORE>
-39.1659

>  <SCORE.INTER>
-24.6367

>  <SCORE.INTER.CONST>
1

>  <SCORE.INTER.POLAR>
-1.05674

>  <SCORE.INTER.REPUL>
0

>  <SCORE.INTER.ROT>
5

>  <SCORE.INTER.VDW>
-31.4438

>  <SCORE.INTER.norm>
-1.02653

>  <SCORE.INTRA>
-5.87892

>  <SCORE.INTRA.DIHEDRAL>
3.34565

>  <SCORE.INTRA.DIHEDRAL.0>
16.9783

>  <SCORE.INTRA.POLAR>
0

>  <SCORE.INTRA.POLAR.0>
0

>  <SCORE.INTRA.REPUL>
0

>  <SCORE.INTRA.REPUL.0>
0

>  <SCORE.INTRA.VDW>
-6.54805

>  <SCORE.INTRA.VDW.0>
4.87734

>  <SCORE.INTRA.norm>
-0.244955

>  <SCORE.RESTR>
2.39644

>  <SCORE.RESTR.CAVITY>
0.479288

>  <SCORE.RESTR.norm>
0.0998516

>  <SCORE.SYSTEM>
-11.0468

>  <SCORE.SYSTEM.CONST>
0

>  <SCORE.SYSTEM.DIHEDRAL>
17.672

>  <SCORE.SYSTEM.POLAR>
-5.19864

>  <SCORE.SYSTEM.REPUL>
1.16943

>  <SCORE.SYSTEM.VDW>
-8.05455

>  <SCORE.SYSTEM.norm>
-0.460283

>  <SCORE.heavy>
24

>  <SCORE.norm>
-1.63191

$$$$
TOL.pdb
  rDOCK(R)          3D
libRbt.so/2013.1/901 2013/11/27
 25 26  0  0  0  0  0  0  0  0999 V2000
   22.6407   25.9533   72.5385 C   0  0  0  0  0  0
   23.9885   26.1011   72.4890 F   0  0  0  0  0  0
   22.3396   24.8351   71.8264 F   0  0  0  0  0  0
   22.2901   25.7154   73.8305 F   0  0  0  0  0  0
   21.9118   27.2012   71.9948 C   0  0  0  0  0  0
   22.3766   28.5297   72.1768 C   0  0  0  0  0  0
   23.4950   28.7454   72.8454 O   0  0  0  0  0  0
   24.5785   29.1116   72.0072 C   0  0  0  0  0  0
   21.6315   29.6031   71.6412 C   0  0  0  0  0  0
   20.4455   29.3705   70.9356 C   0  0  0  0  0  0
   19.9796   28.0532   70.7551 C   0  0  0  0  0  0
   18.7786   27.8316   70.0412 C   0  0  0  0  0  0
   18.3153   26.5180   69.8605 C   0  0  0  0  0  0
   19.0312   25.4378   70.3814 C   0  0  0  0  0  0
   20.2201   25.6622   71.0868 C   0  0  0  0  0  0
   20.7063   26.9684   71.2812 C   0  0  0  0  0  0
   17.9422   28.9389   69.4443 C   0  0  0  0  0  0
   16.6034   29.5506   70.3215 S   0  0  0  0  0  0
   18.2646   29.4364   68.2494 N   0  0  0  0  0  0
   19.4704   28.9727   67.5721 C   0  0  0  0  0  0
   17.4480   30.4565   67.5993 C   0  0  0  0  0  0
   16.0782   29.8999   67.1748 C   0  0  0  0  0  0
   15.6740   29.9819   66.0448 O   0  0  0  0  0  0
   15.3716   29.3123   68.1468 O   0  0  0  0  0  0
   14.5426   28.9212   67.9526 H   0  0  0  0  0  0
  1  2  1  0  0  0
  1  3  1  0  0  0
  1  4  1  0  0  0
  1  5  1  0  0  0
  5  6  2  0  0  0
  5 16  1  0  0  0
  6  7  1  0  0  0
  6  9  1  0  0  0
  7  8  1  0  0  0
  9 10  2  0  0  0
 10 11  1  0  0  0
 11 12  2  0  0  0
 11 16  1  0  0  0
 12 13  1  0  0  0
 12 17  1  0  0  0
 13 14  2  0  0  0
 14 15  1  0  0  0
 15 16  2  0  0  0
 17 18  2  0  0  0
 17 19  1  0  0  0
 19 20  1  0  0  0
 19 21  1  0  0  0
 21 22  1  0  0  0
 22 23  2  0  0  0
 22 24  1  0  0  0
 24 25  1  0  0  0
M  END
>  <CHROM.0>
123.98926787,-172.28699626,-173.37886128,150.93394801,74.40600320,78.21228647
74.90304451,167.42243843,-61.18859492,-61.54190337,-63.97583086,-61.41326028
-60.50081437,93.54806969

>  <CHROM.1>
-35.65099934,106.19621385,-96.03846844,-68.03509757,-125.59122592,-177.61568811
19.89670437,28.02719802,70.46692430,0.50920771,0.49264152,2.82808457

>  <FORMUL>
      TOL    C16 H14 F3 N1 O3 S1

>  <HET>
 TOL  A 320      24

>  <HETNAM>
     TOL TOLRESTAT

>  <Name>
TOL.pdb

>  <RI>
0

>  <Rbt.Current_Directory>
/home/malgorzata/Desktop/rDOCK_IFD/Wyniki/1a_aldose_reductase

>  <Rbt.Executable>
rbdock ($Id: //depot/dev/client3/rdock/2013.1/src/exe/rbdock.cxx#4 $)

>  <Rbt.Library>
libRbt.so (2013.1, Build901 2013/11/27)

>  <Rbt.Parameter_File>
/home/malgorzata/Desktop/rDock_2013.1_src/data/scripts/soft_docking.prm

>  <Rbt.Receptor>
cavity.prm

>  <SCORE>
-38.6463

>  <SCORE.INTER>
-32.2431

>  <SCORE.INTER.CONST>
1

>  <SCORE.INTER.POLAR>
-2.98342

>  <SCORE.INTER.REPUL>
0.550462

>  <SCORE.INTER.ROT>
5

>  <SCORE.INTER.VDW>
-35.2517

>  <SCORE.INTER.norm>
-1.34346

>  <SCORE.INTRA>
-0.396492

>  <SCORE.INTRA.DIHEDRAL>
4.57151

>  <SCORE.INTRA.DIHEDRAL.0>
16.9783

>  <SCORE.INTRA.POLAR>
0

>  <SCORE.INTRA.POLAR.0>
0

>  <SCORE.INTRA.REPUL>
0

>  <SCORE.INTRA.REPUL.0>
0

>  <SCORE.INTRA.VDW>
-1.31079

>  <SCORE.INTRA.VDW.0>
4.87734

>  <SCORE.INTRA.norm>
-0.0165205

>  <SCORE.RESTR>
0.549345

>  <SCORE.RESTR.CAVITY>
0.109869

>  <SCORE.RESTR.norm>
0.0228894

>  <SCORE.SYSTEM>
-6.55606

>  <SCORE.SYSTEM.CONST>
0

>  <SCORE.SYSTEM.DIHEDRAL>
8.6776

>  <SCORE.SYSTEM.POLAR>
-3.0857

>  <SCORE.SYSTEM.REPUL>
1.16943

>  <SCORE.SYSTEM.VDW>
-6.25065

>  <SCORE.SYSTEM.norm>
-0.273169

>  <SCORE.heavy>
24

>  <SCORE.norm>
-1.61026

$$$$
TOL.pdb
  rDOCK(R)          3D
libRbt.so/2013.1/901 2013/11/27
 25 26  0  0  0  0  0  0  0  0999 V2000
   18.9751   29.1303   70.5902 C   0  0  0  0  0  0
   20.0130   28.8671   71.4235 F   0  0  0  0  0  0
   17.9444   28.3338   70.9793 F   0  0  0  0  0  0
   18.5885   30.4181   70.7926 F   0  0  0  0  0  0
   19.3602   28.9006   69.1127 C   0  0  0  0  0  0
   20.6727   28.5791   68.6789 C   0  0  0  0  0  0
   21.6442   28.4621   69.5660 O   0  0  0  0  0  0
   21.8212   27.1303   70.0197 C   0  0  0  0  0  0
   20.9200   28.3925   67.3012 C   0  0  0  0  0  0
   19.8883   28.5201   66.3643 C   0  0  0  0  0  0
   18.5846   28.8415   66.7908 C   0  0  0  0  0  0
   17.5509   28.9690   65.8336 C   0  0  0  0  0  0
   16.2512   29.2883   66.2596 C   0  0  0  0  0  0
   15.9788   29.4805   67.6159 C   0  0  0  0  0  0
   17.0054   29.3524   68.5599 C   0  0  0  0  0  0
   18.3160   29.0326   68.1594 C   0  0  0  0  0  0
   17.7555   28.7783   64.3491 C   0  0  0  0  0  0
   17.7242   30.1418   63.3118 S   0  0  0  0  0  0
   17.9722   27.5539   63.8663 N   0  0  0  0  0  0
   18.1006   26.4256   64.7819 C   0  0  0  0  0  0
   18.1053   27.3083   62.4338 C   0  0  0  0  0  0
   19.3117   26.4057   62.1235 C   0  0  0  0  0  0
   19.3948   25.2797   62.5386 O   0  0  0  0  0  0
   20.2575   26.9567   61.3547 O   0  0  0  0  0  0
   21.1232   26.5982   61.3476 H   0  0  0  0  0  0
  1  2  1  0  0  0
  1  3  1  0  0  0
  1  4  1  0  0  0
  1  5  1  0  0  0
  5  6  2  0  0  0
  5 16  1  0  0  0
  6  7  1  0  0  0
  6  9  1  0  0  0
  7  8  1  0  0  0
  9 10  2  0  0  0
 10 11  1  0  0  0
 11 12  2  0  0  0
 11 16  1  0  0  0
 12 13  1  0  0  0
 12 17  1  0  0  0
 13 14  2  0  0  0
 14 15  1  0  0  0
 15 16  2  0  0  0
 17 18  2  0  0  0
 17 19  1  0  0  0
 19 20  1  0  0  0
 19 21  1  0  0  0
 21 22  1  0  0  0
 22 23  2  0  0  0
 22 24  1  0  0  0
 24 25  1  0  0  0
M  END
>  <CHROM.0>
43.80150010,42.86256831,-125.31256060,65.21330961,-170.71328004,-155.41959111
72.14697037,-156.85549350,-61.18859492,-61.54190337,25.37516030,-61.41326028
-60.50081437,-1.16811841

>  <CHROM.1>
-5.62324697,92.67144192,-107.83086443,133.60212000,61.80565293,160.21557955
18.83513086,28.42456471,66.72349262,1.44975333,-0.55470208,1.32225818

>  <FORMUL>
      TOL    C16 H14 F3 N1 O3 S1

>  <HET>
 TOL  A 320      24

>  <HETNAM>
     TOL TOLRESTAT

>  <Name>
TOL.pdb

>  <RI>
0

>  <Rbt.Current_Directory>
/home/malgorzata/Desktop/rDOCK_IFD/Wyniki/1a_aldose_reductase

>  <Rbt.Executable>
rbdock ($Id: //depot/dev/client3/rdock/2013.1/src/exe/rbdock.cxx#4 $)

>  <Rbt.Library>
libRbt.so (2013.1, Build901 2013/11/27)

>  <Rbt.Parameter_File>
/home/malgorzata/Desktop/rDock_2013.1_src/data/scripts/soft_docking.prm

>  <Rbt.Receptor>
cavity.prm

>  <SCORE>
-38.6242

>  <SCORE.INTER>
-29.4817

>  <SCORE.INTER.CONST>
1

>  <SCORE.INTER.POLAR>
-0.680416

>  <SCORE.INTER.REPUL>
0

>  <SCORE.INTER.ROT>
5

>  <SCORE.INTER.VDW>
-37.5683

>  <SCORE.INTER.norm>
-1.2284

>  <SCORE.INTRA>
-3.52343

>  <SCORE.INTRA.DIHEDRAL>
6.495

>  <SCORE.INTRA.DIHEDRAL.0>
16.9783

>  <SCORE.INTRA.POLAR>
0

>  <SCORE.INTRA.POLAR.0>
0

>  <SCORE.INTRA.REPUL>
0

>  <SCORE.INTRA.REPUL.0>
0

>  <SCORE.INTRA.VDW>
-4.82243

>  <SCORE.INTRA.VDW.0>
4.87734

>  <SCORE.INTRA.norm>
-0.14681

>  <SCORE.RESTR>
0

>  <SCORE.RESTR.CAVITY>
0

>  <SCORE.RESTR.norm>
0

>  <SCORE.SYSTEM>
-5.61905

>  <SCORE.SYSTEM.CONST>
0

>  <SCORE.SYSTEM.DIHEDRAL>
17.1161

>  <SCORE.SYSTEM.POLAR>
-3.62751

>  <SCORE.SYSTEM.REPUL>
1.16943

>  <SCORE.SYSTEM.VDW>
-7.69071

>  <SCORE.SYSTEM.norm>
-0.234127

>  <SCORE.heavy>
24

>  <SCORE.norm>
-1.60934

$$$$
TOL.pdb
  rDOCK(R)          3D
libRbt.so/2013.1/901 2013/11/27
 25 26  0  0  0  0  0  0  0  0999 V2000
   23.8933   28.4329   72.7444 C   0  0  0  0  0  0
   23.5867   29.0103   73.9333 F   0  0  0  0  0  0
   24.6245   29.3387   72.0423 F   0  0  0  0  0  0
   24.7000   27.3662   72.9896 F   0  0  0  0  0  0
   22.6243   27.9951   71.9813 C   0  0  0  0  0  0
   22.4548   26.7112   71.4008 C   0  0  0  0  0  0
   23.4201   25.8154   71.5016 O   0  0  0  0  0  0
   23.2241   24.9098   72.5751 C   0  0  0  0  0  0
   21.2544   26.4126   70.7196 C   0  0  0  0  0  0
   20.2351   27.3656   70.6127 C   0  0  0  0  0  0
   20.4007   28.6421   71.1855 C   0  0  0  0  0  0
   19.3635   29.5969   71.0692 C   0  0  0  0  0  0
   19.5287   30.8688   71.6415 C   0  0  0  0  0  0
   20.7066   31.1918   72.3191 C   0  0  0  0  0  0
   21.7304   30.2428   72.4322 C   0  0  0  0  0  0
   21.5896   28.9612   71.8684 C   0  0  0  0  0  0
   18.0584   29.3334   70.3556 C   0  0  0  0  0  0
   16.6127   29.1971   71.2654 S   0  0  0  0  0  0
   18.0451   29.2247   69.0262 N   0  0  0  0  0  0
   19.2704   29.4510   68.2678 C   0  0  0  0  0  0
   16.8232   28.9008   68.2968 C   0  0  0  0  0  0
   16.4359   30.0202   67.3153 C   0  0  0  0  0  0
   16.9539   31.1054   67.3422 O   0  0  0  0  0  0
   15.4891   29.7008   66.4259 O   0  0  0  0  0  0
   15.0739   28.8617   66.4645 H   0  0  0  0  0  0
  1  2  1  0  0  0
  1  3  1  0  0  0
  1  4  1  0  0  0
  1  5  1  0  0  0
  5  6  2  0  0  0
  5 16  1  0  0  0
  6  7  1  0  0  0
  6  9  1  0  0  0
  7  8  1  0  0  0
  9 10  2  0  0  0
 10 11  1  0  0  0
 11 12  2  0  0  0
 11 16  1  0  0  0
 12 13  1  0  0  0
 12 17  1  0  0  0
 13 14  2  0  0  0
 14 15  1  0  0  0
 15 16  2  0  0  0
 17 18  2  0  0  0
 17 19  1  0  0  0
 19 20  1  0  0  0
 19 21  1  0  0  0
 21 22  1  0  0  0
 22 23  2  0  0  0
 22 24  1  0  0  0
 24 25  1  0  0  0
M  END
>  <CHROM.0>
-19.37447620,151.54990101,172.87386280,142.40160445,-168.69273673,-171.82516718
120.67854271,-117.53604025,-61.18859492,-61.54190337,50.71354238,-61.41326028
-60.50081437,28.45838569

>  <CHROM.1>
-131.47148223,96.57190329,110.05568584,119.17988067,-12.16533309,3.74850184
20.37491885,28.74571260,70.84649072,-0.00873048,-0.59630225,0.45172458

>  <FORMUL>
      TOL    C16 H14 F3 N1 O3 S1

>  <HET>
 TOL  A 320      24

>  <HETNAM>
     TOL TOLRESTAT

>  <Name>
TOL.pdb

>  <RI>
0

>  <Rbt.Current_Directory>
/home/malgorzata/Desktop/rDOCK_IFD/Wyniki/1a_aldose_reductase

>  <Rbt.Executable>
rbdock ($Id: //depot/dev/client3/rdock/2013.1/src/exe/rbdock.cxx#4 $)

>  <Rbt.Library>
libRbt.so (2013.1, Build901 2013/11/27)

>  <Rbt.Parameter_File>
/home/malgorzata/Desktop/rDock_2013.1_src/data/scripts/soft_docking.prm

>  <Rbt.Receptor>
cavity.prm

>  <SCORE>
-49.4272

>  <SCORE.INTER>
-36.7806

>  <SCORE.INTER.CONST>
1

>  <SCORE.INTER.POLAR>
-2.07511

>  <SCORE.INTER.REPUL>
0.0204589

>  <SCORE.INTER.ROT>
5

>  <SCORE.INTER.VDW>
-40.2275

>  <SCORE.INTER.norm>
-1.53252

>  <SCORE.INTRA>
-4.6922

>  <SCORE.INTRA.DIHEDRAL>
3.65509

>  <SCORE.INTRA.DIHEDRAL.0>
16.9783

>  <SCORE.INTRA.POLAR>
0

>  <SCORE.INTRA.POLAR.0>
0

>  <SCORE.INTRA.REPUL>
0

>  <SCORE.INTRA.REPUL.0>
0

>  <SCORE.INTRA.VDW>
-5.42321

>  <SCORE.INTRA.VDW.0>
4.87734

>  <SCORE.INTRA.norm>
-0.195508

>  <SCORE.RESTR>
1.37136

>  <SCORE.RESTR.CAVITY>
0.274273

>  <SCORE.RESTR.norm>
0.0571402

>  <SCORE.SYSTEM>
-9.32582

>  <SCORE.SYSTEM.CONST>
0

>  <SCORE.SYSTEM.DIHEDRAL>
8.33192

>  <SCORE.SYSTEM.POLAR>
-3.49244

>  <SCORE.SYSTEM.REPUL>
1.16943

>  <SCORE.SYSTEM.VDW>
-7.46465

>  <SCORE.SYSTEM.norm>
-0.388576

>  <SCORE.heavy>
24

>  <SCORE.norm>
-2.05947

$$$$
TOL.pdb
  rDOCK(R)          3D
libRbt.so/2013.1/901 2013/11/27
 25 26  0  0  0  0  0  0  0  0999 V2000
   16.0319   30.7237   65.3400 C   0  0  0  0  0  0
   16.2951   31.1566   64.0814 F   0  0  0  0  0  0
   15.6686   31.8147   66.0652 F   0  0  0  0  0  0
   14.9528   29.8984   65.2847 F   0  0  0  0  0  0
   17.2462   29.9956   65.9561 C   0  0  0  0  0  0
   18.3733   29.5665   65.2080 C   0  0  0  0  0  0
   18.4172   29.7878   63.9067 O   0  0  0  0  0  0
   17.7135   28.8120   63.1559 C   0  0  0  0  0  0
   19.4314   28.9047   65.8688 C   0  0  0  0  0  0
   19.3798   28.6697   67.2475 C   0  0  0  0  0  0
   18.2614   29.0920   67.9931 C   0  0  0  0  0  0
   18.2208   28.8472   69.3857 C   0  0  0  0  0  0
   17.1062   29.2695   70.1286 C   0  0  0  0  0  0
   16.0446   29.9245   69.5004 C   0  0  0  0  0  0
   16.0898   30.1653   68.1214 C   0  0  0  0  0  0
   17.1952   29.7529   67.3544 C   0  0  0  0  0  0
   19.3228   28.1473   70.1458 C   0  0  0  0  0  0
   19.2358   26.4531   70.3874 S   0  0  0  0  0  0
   20.3563   28.8537   70.6065 N   0  0  0  0  0  0
   20.4595   30.2751   70.2951 C   0  0  0  0  0  0
   21.4095   28.2367   71.4064 C   0  0  0  0  0  0
   21.9133   29.1849   72.5080 C   0  0  0  0  0  0
   23.0812   29.2985   72.7727 O   0  0  0  0  0  0
   20.9640   29.8791   73.1455 O   0  0  0  0  0  0
   20.1484   29.4703   73.3591 H   0  0  0  0  0  0
  1  2  1  0  0  0
  1  3  1  0  0  0
  1  4  1  0  0  0
  1  5  1  0  0  0
  5  6  2  0  0  0
  5 16  1  0  0  0
  6  7  1  0  0  0
  6  9  1  0  0  0
  7  8  1  0  0  0
  9 10  2  0  0  0
 10 11  1  0  0  0
 11 12  2  0  0  0
 11 16  1  0  0  0
 12 13  1  0  0  0
 12 17  1  0  0  0
 13 14  2  0  0  0
 14 15  1  0  0  0
 15 16  2  0  0  0
 17 18  2  0  0  0
 17 19  1  0  0  0
 19 20  1  0  0  0
 19 21  1  0  0  0
 21 22  1  0  0  0
 22 23  2  0  0  0
 22 24  1  0  0  0
 24 25  1  0  0  0
M  END
>  <CHROM.0>
-10.68046399,57.06192727,80.79441849,149.26334516,131.12356397,79.27927491
132.28865738,168.10002792,-61.18859492,-61.54190337,-171.86301790,-61.41326028
-60.50081437,70.42633694

>  <CHROM.1>
-13.34256217,-82.82384465,-93.04607628,-143.25897569,-138.05871465,39.35022098
18.45208579,29.36463319,68.19111983,2.18662619,0.41354436,-1.62658713

>  <FORMUL>
      TOL    C16 H14 F3 N1 O3 S1

>  <HET>
 TOL  A 320      24

>  <HETNAM>
     TOL TOLRESTAT

>  <Name>
TOL.pdb

>  <RI>
0

>  <Rbt.Current_Directory>
/home/malgorzata/Desktop/rDOCK_IFD/Wyniki/1a_aldose_reductase

>  <Rbt.Executable>
rbdock ($Id: //depot/dev/client3/rdock/2013.1/src/exe/rbdock.cxx#4 $)

>  <Rbt.Library>
libRbt.so (2013.1, Build901 2013/11/27)

>  <Rbt.Parameter_File>
/home/malgorzata/Desktop/rDock_2013.1_src/data/scripts/soft_docking.prm

>  <Rbt.Receptor>
cavity.prm

>  <SCORE>
-46.6796

>  <SCORE.INTER>
-34.1848

>  <SCORE.INTER.CONST>
1

>  <SCORE.INTER.POLAR>
-1.25258

>  <SCORE.INTER.REPUL>
0

>  <SCORE.INTER.ROT>
5

>  <SCORE.INTER.VDW>
-40.326

>  <SCORE.INTER.norm>
-1.42437

>  <SCORE.INTRA>
-2.31233

>  <SCORE.INTRA.DIHEDRAL>
14.2779

>  <SCORE.INTRA.DIHEDRAL.0>
16.9783

>  <SCORE.INTRA.POLAR>
0

>  <SCORE.INTRA.POLAR.0>
0

>  <SCORE.INTRA.REPUL>
0

>  <SCORE.INTRA.REPUL.0>
0

>  <SCORE.INTRA.VDW>
-5.16792

>  <SCORE.INTRA.VDW.0>
4.87734

>  <SCORE.INTRA.norm>
-0.0963471

>  <SCORE.RESTR>
0

>  <SCORE.RESTR.CAVITY>
0

>  <SCORE.RESTR.norm>
0

>  <SCORE.SYSTEM>
-10.1825

>  <SCORE.SYSTEM.CONST>
0

>  <SCORE.SYSTEM.DIHEDRAL>
11.442

>  <SCORE.SYSTEM.POLAR>
-4.12496

>  <SCORE.SYSTEM.REPUL>
1.16943

>  <SCORE.SYSTEM.VDW>
-7.72581

>  <SCORE.SYSTEM.norm>
-0.424271

>  <SCORE.heavy>
24

>  <SCORE.norm>
-1.94498

$$$$
TOL.pdb
  rDOCK(R)          3D
libRbt.so/2013.1/901 2013/11/27
 25 26  0  0  0  0  0  0  0  0999 V2000
   23.0052   28.5011   72.6934 C   0  0  0  0  0  0
   24.1126   27.7746   72.9880 F   0  0  0  0  0  0
   22.1301   28.3204   73.7179 F   0  0  0  0  0  0
   23.3531   29.8155   72.6869 F   0  0  0  0  0  0
   22.4001   28.0887   71.3340 C   0  0  0  0  0  0
   22.8755   27.0023   70.5544 C   0  0  0  0  0  0
   23.8934   26.2816   70.9890 O   0  0  0  0  0  0
   23.5783   24.9058   71.1259 C   0  0  0  0  0  0
   22.2526   26.7107   69.3210 C   0  0  0  0  0  0
   21.1760   27.4785   68.8628 C   0  0  0  0  0  0
   20.7029   28.5594   69.6327 C   0  0  0  0  0  0
   19.6149   29.3285   69.1577 C   0  0  0  0  0  0
   19.1429   30.4052   69.9263 C   0  0  0  0  0  0
   19.7417   30.7172   71.1491 C   0  0  0  0  0  0
   20.8181   29.9523   71.6155 C   0  0  0  0  0  0
   21.3096   28.8681   70.8649 C   0  0  0  0  0  0
   18.9085   29.0621   67.8493 C   0  0  0  0  0  0
   19.8253   28.9325   66.4075 S   0  0  0  0  0  0
   17.5826   28.9167   67.8345 N   0  0  0  0  0  0
   16.8382   28.9249   69.0890 C   0  0  0  0  0  0
   16.8470   28.7285   66.5882 C   0  0  0  0  0  0
   15.8450   29.8699   66.3440 C   0  0  0  0  0  0
   16.0846   31.0098   66.6441 O   0  0  0  0  0  0
   14.6929   29.5083   65.7684 O   0  0  0  0  0  0
   14.3462   28.6499   65.9130 H   0  0  0  0  0  0
  1  2  1  0  0  0
  1  3  1  0  0  0
  1  4  1  0  0  0
  1  5  1  0  0  0
  5  6  2  0  0  0
  5 16  1  0  0  0
  6  7  1  0  0  0
  6  9  1  0  0  0
  7  8  1  0  0  0
  9 10  2  0  0  0
 10 11  1  0  0  0
 11 12  2  0  0  0
 11 16  1  0  0  0
 12 13  1  0  0  0
 12 17  1  0  0  0
 13 14  2  0  0  0
 14 15  1  0  0  0
 15 16  2  0  0  0
 17 18  2  0  0  0
 17 19  1  0  0  0
 19 20  1  0  0  0
 19 21  1  0  0  0
 21 22  1  0  0  0
 22 23  2  0  0  0
 22 24  1  0  0  0
 24 25  1  0  0  0
M  END
>  <CHROM.0>
-36.58834777,-68.13622964,68.21963540,138.69010824,156.43522404,73.54715005
109.63915694,-170.25171465,-61.18859492,-61.54190337,-178.79923641,-61.41326028
-60.50081437,33.33042767

>  <CHROM.1>
5.39485839,121.85479220,-52.30541104,-118.28978173,36.46667717,29.99979715
20.30970093,28.65492380,69.63943162,0.38716520,-0.62139894,0.94641930

>  <FORMUL>
      TOL    C16 H14 F3 N1 O3 S1

>  <HET>
 TOL  A 320      24

>  <HETNAM>
     TOL TOLRESTAT

>  <Name>
TOL.pdb

>  <RI>
0

>  <Rbt.Current_Directory>
/home/malgorzata/Desktop/rDOCK_IFD/Wyniki/1a_aldose_reductase

>  <Rbt.Executable>
rbdock ($Id: //depot/dev/client3/rdock/2013.1/src/exe/rbdock.cxx#4 $)

>  <Rbt.Library>
libRbt.so (2013.1, Build901 2013/11/27)

>  <Rbt.Parameter_File>
/home/malgorzata/Desktop/rDock_2013.1_src/data/scripts/soft_docking.prm

>  <Rbt.Receptor>
cavity.prm

>  <SCORE>
-48.3397

>  <SCORE.INTER>
-36.5926

>  <SCORE.INTER.CONST>
1

>  <SCORE.INTER.POLAR>
-2.38232

>  <SCORE.INTER.REPUL>
0

>  <SCORE.INTER.ROT>
5

>  <SCORE.INTER.VDW>
-38.8928

>  <SCORE.INTER.norm>
-1.52469

>  <SCORE.INTRA>
-2.25937

>  <SCORE.INTRA.DIHEDRAL>
4.7525

>  <SCORE.INTRA.DIHEDRAL.0>
16.9783

>  <SCORE.INTRA.POLAR>
0

>  <SCORE.INTRA.POLAR.0>
0

>  <SCORE.INTRA.REPUL>
0

>  <SCORE.INTRA.REPUL.0>
0

>  <SCORE.INTRA.VDW>
-3.20986

>  <SCORE.INTRA.VDW.0>
4.87734

>  <SCORE.INTRA.norm>
-0.0941402

>  <SCORE.RESTR>
0.0510251

>  <SCORE.RESTR.CAVITY>
0.010205

>  <SCORE.RESTR.norm>
0.00212605

>  <SCORE.SYSTEM>
-9.53874

>  <SCORE.SYSTEM.CONST>
0

>  <SCORE.SYSTEM.DIHEDRAL>
8.72406

>  <SCORE.SYSTEM.POLAR>
-3.66313

>  <SCORE.SYSTEM.REPUL>
1.16943

>  <SCORE.SYSTEM.VDW>
-7.29327

>  <SCORE.SYSTEM.norm>
-0.397447

>  <SCORE.heavy>
24

>  <SCORE.norm>
-2.01415

$$$$
