TOL.pdb
  rDOCK(R)          3D
libRbt.so/2013.1/901 2013/11/27
 25 26  0  0  0  0  0  0  0  0999 V2000
   15.0819   28.4830   67.0672 C   0  0  0  0  0  0
   14.4736   28.1950   68.2452 F   0  0  0  0  0  0
   14.8009   27.4600   66.2171 F   0  0  0  0  0  0
   14.5031   29.6024   66.5566 F   0  0  0  0  0  0
   16.6019   28.6867   67.2474 C   0  0  0  0  0  0
   17.4344   29.3156   66.2854 C   0  0  0  0  0  0
   16.9094   29.7641   65.1596 O   0  0  0  0  0  0
   17.2918   28.9997   64.0281 C   0  0  0  0  0  0
   18.8157   29.4488   66.5470 C   0  0  0  0  0  0
   19.3686   28.9698   67.7400 C   0  0  0  0  0  0
   18.5457   28.3427   68.6963 C   0  0  0  0  0  0
   19.1171   27.8615   69.8976 C   0  0  0  0  0  0
   18.2960   27.2375   70.8511 C   0  0  0  0  0  0
   16.9268   27.0905   70.6174 C   0  0  0  0  0  0
   16.3657   27.5692   69.4269 C   0  0  0  0  0  0
   17.1662   28.1987   68.4557 C   0  0  0  0  0  0
   20.5854   27.9783   70.2325 C   0  0  0  0  0  0
   21.7309   27.0842   69.3245 S   0  0  0  0  0  0
   20.9731   28.7863   71.2206 N   0  0  0  0  0  0
   19.9894   29.6167   71.9065 C   0  0  0  0  0  0
   22.3712   28.8801   71.6287 C   0  0  0  0  0  0
   22.9498   27.5012   71.9895 C   0  0  0  0  0  0
   24.1248   27.3277   72.1797 O   0  0  0  0  0  0
   22.0555   26.5109   72.0842 O   0  0  0  0  0  0
   22.3453   25.6217   72.1408 H   0  0  0  0  0  0
  1  2  1  0  0  0
  1  3  1  0  0  0
  1  4  1  0  0  0
  1  5  1  0  0  0
  5  6  2  0  0  0
  5 16  1  0  0  0
  6  7  1  0  0  0
  6  9  1  0  0  0
  7  8  1  0  0  0
  9 10  2  0  0  0
 10 11  1  0  0  0
 11 12  2  0  0  0
 11 16  1  0  0  0
 12 13  1  0  0  0
 12 17  1  0  0  0
 13 14  2  0  0  0
 14 15  1  0  0  0
 15 16  2  0  0  0
 17 18  2  0  0  0
 17 19  1  0  0  0
 19 20  1  0  0  0
 19 21  1  0  0  0
 21 22  1  0  0  0
 22 23  2  0  0  0
 22 24  1  0  0  0
 24 25  1  0  0  0
M  END
>  <CHROM.0>
-46.52487965,35.59537264,-166.55407210,-165.68330772,-83.42641400,177.81521214
3.38902446,128.51313184,-61.18859492,-61.54190337,84.50913666,-61.41326028
-60.50081437,58.94085261

>  <CHROM.1>
-163.55282125,-109.50594654,-67.65686114,-55.08047361,169.94444002,168.56439541
18.66129370,28.22672141,68.86693120,2.47706758,-0.05147570,-1.29132698

>  <FORMUL>
      TOL    C16 H14 F3 N1 O3 S1

>  <HET>
 TOL  A 320      24

>  <HETNAM>
     TOL TOLRESTAT

>  <Name>
TOL.pdb

>  <RI>
0

>  <Rbt.Current_Directory>
/home/malgorzata/Desktop/rDOCK_IFD/Wyniki/1a_aldose_reductase

>  <Rbt.Executable>
rbdock ($Id: //depot/dev/client3/rdock/2013.1/src/exe/rbdock.cxx#4 $)

>  <Rbt.Library>
libRbt.so (2013.1, Build901 2013/11/27)

>  <Rbt.Parameter_File>
/home/malgorzata/Desktop/rDock_2013.1_src/data/scripts/soft_docking.prm

>  <Rbt.Receptor>
cavity.prm

>  <SCORE>
-34.618

>  <SCORE.INTER>
-31.1611

>  <SCORE.INTER.CONST>
1

>  <SCORE.INTER.POLAR>
-2.26327

>  <SCORE.INTER.REPUL>
0.0124038

>  <SCORE.INTER.ROT>
5

>  <SCORE.INTER.VDW>
-33.928

>  <SCORE.INTER.norm>
-1.29838

>  <SCORE.INTRA>
-0.502884

>  <SCORE.INTRA.DIHEDRAL>
3.69301

>  <SCORE.INTRA.DIHEDRAL.0>
16.9783

>  <SCORE.INTRA.POLAR>
0

>  <SCORE.INTRA.POLAR.0>
0

>  <SCORE.INTRA.REPUL>
0

>  <SCORE.INTRA.REPUL.0>
0

>  <SCORE.INTRA.VDW>
-1.24149

>  <SCORE.INTRA.VDW.0>
4.87734

>  <SCORE.INTRA.norm>
-0.0209535

>  <SCORE.RESTR>
0.974639

>  <SCORE.RESTR.CAVITY>
0.974639

>  <SCORE.RESTR.norm>
0.04061

>  <SCORE.SYSTEM>
-3.92861

>  <SCORE.SYSTEM.CONST>
0

>  <SCORE.SYSTEM.DIHEDRAL>
12.0931

>  <SCORE.SYSTEM.POLAR>
-2.87024

>  <SCORE.SYSTEM.REPUL>
1.19666

>  <SCORE.SYSTEM.VDW>
-6.19966

>  <SCORE.SYSTEM.norm>
-0.163692

>  <SCORE.heavy>
24

>  <SCORE.norm>
-1.44242

$$$$
TOL.pdb
  rDOCK(R)          3D
libRbt.so/2013.1/901 2013/11/27
 25 26  0  0  0  0  0  0  0  0999 V2000
   15.6212   30.0616   65.3805 C   0  0  0  0  0  0
   14.4417   29.7033   65.9474 F   0  0  0  0  0  0
   15.4826   29.8910   64.0390 F   0  0  0  0  0  0
   15.8083   31.3902   65.6011 F   0  0  0  0  0  0
   16.7983   29.2413   65.9512 C   0  0  0  0  0  0
   17.7572   28.5710   65.1480 C   0  0  0  0  0  0
   17.6657   28.6328   63.8319 O   0  0  0  0  0  0
   17.2162   27.4197   63.2512 C   0  0  0  0  0  0
   18.7949   27.8435   65.7710 C   0  0  0  0  0  0
   18.8867   27.7782   67.1660 C   0  0  0  0  0  0
   17.9352   28.4403   67.9667 C   0  0  0  0  0  0
   18.0383   28.3653   69.3755 C   0  0  0  0  0  0
   17.0902   29.0266   70.1733 C   0  0  0  0  0  0
   16.0522   29.7516   69.5835 C   0  0  0  0  0  0
   15.9548   29.8235   68.1883 C   0  0  0  0  0  0
   16.8921   29.1706   67.3665 C   0  0  0  0  0  0
   19.1267   27.6055   70.0967 C   0  0  0  0  0  0
   18.9074   25.9411   70.4399 S   0  0  0  0  0  0
   20.2501   28.2353   70.4441 N   0  0  0  0  0  0
   20.4561   29.6234   70.0458 C   0  0  0  0  0  0
   21.3004   27.5644   71.2035 C   0  0  0  0  0  0
   22.5585   27.3342   70.3488 C   0  0  0  0  0  0
   23.3750   28.1976   70.1626 O   0  0  0  0  0  0
   22.6850   26.1062   69.8337 O   0  0  0  0  0  0
   22.5548   25.3543   70.3775 H   0  0  0  0  0  0
  1  2  1  0  0  0
  1  3  1  0  0  0
  1  4  1  0  0  0
  1  5  1  0  0  0
  5  6  2  0  0  0
  5 16  1  0  0  0
  6  7  1  0  0  0
  6  9  1  0  0  0
  7  8  1  0  0  0
  9 10  2  0  0  0
 10 11  1  0  0  0
 11 12  2  0  0  0
 11 16  1  0  0  0
 12 13  1  0  0  0
 12 17  1  0  0  0
 13 14  2  0  0  0
 14 15  1  0  0  0
 15 16  2  0  0  0
 17 18  2  0  0  0
 17 19  1  0  0  0
 19 20  1  0  0  0
 19 21  1  0  0  0
 21 22  1  0  0  0
 22 23  2  0  0  0
 22 24  1  0  0  0
 24 25  1  0  0  0
M  END
>  <CHROM.0>
4.04794247,-160.67385519,67.80338897,161.13756919,73.58610520,49.83483895
-162.36660408,-147.48775529,-61.18859492,-61.54190337,-133.50166726,-61.41326028
-60.50081437,103.96137062

>  <CHROM.1>
129.77944941,-106.60727796,-87.53033817,110.73375378,81.32530347,-47.31712005
18.28539155,28.48240172,67.83110591,2.41677186,0.46284429,-1.63373021

>  <FORMUL>
      TOL    C16 H14 F3 N1 O3 S1

>  <HET>
 TOL  A 320      24

>  <HETNAM>
     TOL TOLRESTAT

>  <Name>
TOL.pdb

>  <RI>
0

>  <Rbt.Current_Directory>
/home/malgorzata/Desktop/rDOCK_IFD/Wyniki/1a_aldose_reductase

>  <Rbt.Executable>
rbdock ($Id: //depot/dev/client3/rdock/2013.1/src/exe/rbdock.cxx#4 $)

>  <Rbt.Library>
libRbt.so (2013.1, Build901 2013/11/27)

>  <Rbt.Parameter_File>
/home/malgorzata/Desktop/rDock_2013.1_src/data/scripts/soft_docking.prm

>  <Rbt.Receptor>
cavity.prm

>  <SCORE>
-45.8287

>  <SCORE.INTER>
-33.9666

>  <SCORE.INTER.CONST>
1

>  <SCORE.INTER.POLAR>
-2.67389

>  <SCORE.INTER.REPUL>
0

>  <SCORE.INTER.ROT>
5

>  <SCORE.INTER.VDW>
-35.2754

>  <SCORE.INTER.norm>
-1.41527

>  <SCORE.INTRA>
-3.45034

>  <SCORE.INTRA.DIHEDRAL>
17.3007

>  <SCORE.INTRA.DIHEDRAL.0>
16.9783

>  <SCORE.INTRA.POLAR>
0

>  <SCORE.INTRA.POLAR.0>
0

>  <SCORE.INTRA.REPUL>
0

>  <SCORE.INTRA.REPUL.0>
0

>  <SCORE.INTRA.VDW>
-6.91049

>  <SCORE.INTRA.VDW.0>
4.87734

>  <SCORE.INTRA.norm>
-0.143764

>  <SCORE.RESTR>
3.31847e-05

>  <SCORE.RESTR.CAVITY>
3.31847e-05

>  <SCORE.RESTR.norm>
1.3827e-06

>  <SCORE.SYSTEM>
-8.41182

>  <SCORE.SYSTEM.CONST>
0

>  <SCORE.SYSTEM.DIHEDRAL>
11.5284

>  <SCORE.SYSTEM.POLAR>
-3.59663

>  <SCORE.SYSTEM.REPUL>
1.16943

>  <SCORE.SYSTEM.VDW>
-7.79462

>  <SCORE.SYSTEM.norm>
-0.350492

>  <SCORE.heavy>
24

>  <SCORE.norm>
-1.90953

$$$$
TOL.pdb
  rDOCK(R)          3D
libRbt.so/2013.1/901 2013/11/27
 25 26  0  0  0  0  0  0  0  0999 V2000
   23.3401   28.5882   73.2720 C   0  0  0  0  0  0
   23.6339   29.9080   73.3848 F   0  0  0  0  0  0
   24.5129   27.9109   73.3911 F   0  0  0  0  0  0
   22.5625   28.2376   74.3309 F   0  0  0  0  0  0
   22.6232   28.2774   71.9403 C   0  0  0  0  0  0
   23.1515   27.4210   70.9395 C   0  0  0  0  0  0
   24.3227   26.8401   71.1276 O   0  0  0  0  0  0
   24.2116   25.5352   71.6715 C   0  0  0  0  0  0
   22.4157   27.2060   69.7536 C   0  0  0  0  0  0
   21.1763   27.8256   69.5570 C   0  0  0  0  0  0
   20.6497   28.6784   70.5471 C   0  0  0  0  0  0
   19.3966   29.2998   70.3356 C   0  0  0  0  0  0
   18.8716   30.1488   71.3236 C   0  0  0  0  0  0
   19.5791   30.3810   72.5053 C   0  0  0  0  0  0
   20.8190   29.7629   72.7104 C   0  0  0  0  0  0
   21.3669   28.9073   71.7366 C   0  0  0  0  0  0
   18.5646   29.1052   69.0900 C   0  0  0  0  0  0
   19.0058   29.9159   67.6463 S   0  0  0  0  0  0
   17.5062   28.2940   69.1252 N   0  0  0  0  0  0
   17.2153   27.5336   70.3355 C   0  0  0  0  0  0
   16.6304   28.1276   67.9696 C   0  0  0  0  0  0
   16.0323   29.4698   67.5142 C   0  0  0  0  0  0
   15.9185   30.4076   68.2588 O   0  0  0  0  0  0
   15.6549   29.5238   66.2320 O   0  0  0  0  0  0
   15.2216   28.7914   65.8399 H   0  0  0  0  0  0
  1  2  1  0  0  0
  1  3  1  0  0  0
  1  4  1  0  0  0
  1  5  1  0  0  0
  5  6  2  0  0  0
  5 16  1  0  0  0
  6  7  1  0  0  0
  6  9  1  0  0  0
  7  8  1  0  0  0
  9 10  2  0  0  0
 10 11  1  0  0  0
 11 12  2  0  0  0
 11 16  1  0  0  0
 12 13  1  0  0  0
 12 17  1  0  0  0
 13 14  2  0  0  0
 14 15  1  0  0  0
 15 16  2  0  0  0
 17 18  2  0  0  0
 17 19  1  0  0  0
 19 20  1  0  0  0
 19 21  1  0  0  0
 21 22  1  0  0  0
 22 23  2  0  0  0
 22 24  1  0  0  0
 24 25  1  0  0  0
M  END
>  <CHROM.0>
39.99051507,0.01839339,83.20686307,156.58848217,96.18270665,-52.20597856
62.73996922,-151.89974643,-61.18859492,-61.54190337,68.53150864,-61.41326028
-60.50081437,-37.80749772

>  <CHROM.1>
117.79092339,94.49032074,-76.65587855,-57.69832074,-23.90573536,40.74936706
20.38946620,28.68790003,70.53564274,0.41917286,-0.49952310,1.03132843

>  <FORMUL>
      TOL    C16 H14 F3 N1 O3 S1

>  <HET>
 TOL  A 320      24

>  <HETNAM>
     TOL TOLRESTAT

>  <Name>
TOL.pdb

>  <RI>
0

>  <Rbt.Current_Directory>
/home/malgorzata/Desktop/rDOCK_IFD/Wyniki/1a_aldose_reductase

>  <Rbt.Executable>
rbdock ($Id: //depot/dev/client3/rdock/2013.1/src/exe/rbdock.cxx#4 $)

>  <Rbt.Library>
libRbt.so (2013.1, Build901 2013/11/27)

>  <Rbt.Parameter_File>
/home/malgorzata/Desktop/rDock_2013.1_src/data/scripts/soft_docking.prm

>  <Rbt.Receptor>
cavity.prm

>  <SCORE>
-44.6869

>  <SCORE.INTER>
-33.8618

>  <SCORE.INTER.CONST>
1

>  <SCORE.INTER.POLAR>
-1.80166

>  <SCORE.INTER.REPUL>
0.031566

>  <SCORE.INTER.ROT>
5

>  <SCORE.INTER.VDW>
-38.294

>  <SCORE.INTER.norm>
-1.41091

>  <SCORE.INTRA>
-4.10599

>  <SCORE.INTRA.DIHEDRAL>
14.2288

>  <SCORE.INTRA.DIHEDRAL.0>
16.9783

>  <SCORE.INTRA.POLAR>
0

>  <SCORE.INTRA.POLAR.0>
0

>  <SCORE.INTRA.REPUL>
0

>  <SCORE.INTRA.REPUL.0>
0

>  <SCORE.INTRA.VDW>
-6.95175

>  <SCORE.INTRA.VDW.0>
4.87734

>  <SCORE.INTRA.norm>
-0.171083

>  <SCORE.RESTR>
0.182597

>  <SCORE.RESTR.CAVITY>
0.182597

>  <SCORE.RESTR.norm>
0.00760821

>  <SCORE.SYSTEM>
-6.90173

>  <SCORE.SYSTEM.CONST>
0

>  <SCORE.SYSTEM.DIHEDRAL>
16.9409

>  <SCORE.SYSTEM.POLAR>
-4.0823

>  <SCORE.SYSTEM.REPUL>
1.16943

>  <SCORE.SYSTEM.VDW>
-7.33951

>  <SCORE.SYSTEM.norm>
-0.287572

>  <SCORE.heavy>
24

>  <SCORE.norm>
-1.86196

$$$$
TOL.pdb
  rDOCK(R)          3D
libRbt.so/2013.1/901 2013/11/27
 25 26  0  0  0  0  0  0  0  0999 V2000
   16.3060   29.7101   65.1922 C   0  0  0  0  0  0
   15.7258   30.8180   65.7182 F   0  0  0  0  0  0
   15.3485   28.7460   65.1479 F   0  0  0  0  0  0
   16.6584   29.9880   63.9087 F   0  0  0  0  0  0
   17.5365   29.2685   66.0138 C   0  0  0  0  0  0
   18.8256   29.0622   65.4574 C   0  0  0  0  0  0
   19.0175   29.2507   64.1644 O   0  0  0  0  0  0
   18.8594   28.0647   63.4032 C   0  0  0  0  0  0
   19.8848   28.6541   66.2975 C   0  0  0  0  0  0
   19.6766   28.4528   67.6667 C   0  0  0  0  0  0
   18.3977   28.6541   68.2223 C   0  0  0  0  0  0
   18.2001   28.4459   69.6074 C   0  0  0  0  0  0
   16.9251   28.6480   70.1609 C   0  0  0  0  0  0
   15.8590   29.0496   69.3528 C   0  0  0  0  0  0
   16.0598   29.2552   67.9821 C   0  0  0  0  0  0
   17.3274   29.0603   67.4029 C   0  0  0  0  0  0
   19.2946   28.0125   70.5540 C   0  0  0  0  0  0
   19.4003   26.3682   71.0243 S   0  0  0  0  0  0
   20.1733   28.9114   71.0003 N   0  0  0  0  0  0
   20.1261   30.2813   70.5013 C   0  0  0  0  0  0
   21.2049   28.5576   71.9701 C   0  0  0  0  0  0
   22.6053   28.5593   71.3335 C   0  0  0  0  0  0
   22.8542   27.9479   70.3280 O   0  0  0  0  0  0
   23.5242   29.2930   71.9712 O   0  0  0  0  0  0
   24.3297   29.5094   71.5442 H   0  0  0  0  0  0
  1  2  1  0  0  0
  1  3  1  0  0  0
  1  4  1  0  0  0
  1  5  1  0  0  0
  5  6  2  0  0  0
  5 16  1  0  0  0
  6  7  1  0  0  0
  6  9  1  0  0  0
  7  8  1  0  0  0
  9 10  2  0  0  0
 10 11  1  0  0  0
 11 12  2  0  0  0
 11 16  1  0  0  0
 12 13  1  0  0  0
 12 17  1  0  0  0
 13 14  2  0  0  0
 14 15  1  0  0  0
 15 16  2  0  0  0
 17 18  2  0  0  0
 17 19  1  0  0  0
 19 20  1  0  0  0
 19 21  1  0  0  0
 21 22  1  0  0  0
 22 23  2  0  0  0
 22 24  1  0  0  0
 24 25  1  0  0  0
M  END
>  <CHROM.0>
-17.77803952,59.32268252,35.84039400,175.94277333,-63.78261813,-68.46147134
91.81582712,-84.03224181,-61.18859492,-61.54190337,166.88946050,-61.41326028
-60.50081437,-176.50362263

>  <CHROM.1>
-126.02067084,-92.70004190,-100.21864593,109.85441024,-52.13394002,-165.38067302
18.75005910,28.79645978,68.13236259,2.18812526,0.04920292,-1.42731457

>  <FORMUL>
      TOL    C16 H14 F3 N1 O3 S1

>  <HET>
 TOL  A 320      24

>  <HETNAM>
     TOL TOLRESTAT

>  <Name>
TOL.pdb

>  <RI>
0

>  <Rbt.Current_Directory>
/home/malgorzata/Desktop/rDOCK_IFD/Wyniki/1a_aldose_reductase

>  <Rbt.Executable>
rbdock ($Id: //depot/dev/client3/rdock/2013.1/src/exe/rbdock.cxx#4 $)

>  <Rbt.Library>
libRbt.so (2013.1, Build901 2013/11/27)

>  <Rbt.Parameter_File>
/home/malgorzata/Desktop/rDock_2013.1_src/data/scripts/soft_docking.prm

>  <Rbt.Receptor>
cavity.prm

>  <SCORE>
-48.2721

>  <SCORE.INTER>
-32.172

>  <SCORE.INTER.CONST>
1

>  <SCORE.INTER.POLAR>
-0.865681

>  <SCORE.INTER.REPUL>
0

>  <SCORE.INTER.ROT>
5

>  <SCORE.INTER.VDW>
-39.6287

>  <SCORE.INTER.norm>
-1.3405

>  <SCORE.INTRA>
-5.95956

>  <SCORE.INTRA.DIHEDRAL>
6.11272

>  <SCORE.INTRA.DIHEDRAL.0>
16.9783

>  <SCORE.INTRA.POLAR>
0

>  <SCORE.INTRA.POLAR.0>
0

>  <SCORE.INTRA.REPUL>
0

>  <SCORE.INTRA.REPUL.0>
0

>  <SCORE.INTRA.VDW>
-7.18211

>  <SCORE.INTRA.VDW.0>
4.87734

>  <SCORE.INTRA.norm>
-0.248315

>  <SCORE.RESTR>
0

>  <SCORE.RESTR.CAVITY>
0

>  <SCORE.RESTR.norm>
0

>  <SCORE.SYSTEM>
-10.1405

>  <SCORE.SYSTEM.CONST>
0

>  <SCORE.SYSTEM.DIHEDRAL>
3.41183

>  <SCORE.SYSTEM.POLAR>
-3.08371

>  <SCORE.SYSTEM.REPUL>
1.16943

>  <SCORE.SYSTEM.VDW>
-7.20891

>  <SCORE.SYSTEM.norm>
-0.422519

>  <SCORE.heavy>
24

>  <SCORE.norm>
-2.01134

$$$$
TOL.pdb
  rDOCK(R)          3D
libRbt.so/2013.1/901 2013/11/27
 25 26  0  0  0  0  0  0  0  0999 V2000
   23.3231   25.6239   71.8650 C   0  0  0  0  0  0
   24.5787   25.9042   72.2959 F   0  0  0  0  0  0
   23.4438   25.0718   70.6286 F   0  0  0  0  0  0
   22.7997   24.6719   72.6827 F   0  0  0  0  0  0
   22.4317   26.8847   71.8529 C   0  0  0  0  0  0
   22.9165   28.1975   72.0891 C   0  0  0  0  0  0
   24.2001   28.3859   72.3365 O   0  0  0  0  0  0
   24.8860   29.0028   71.2596 C   0  0  0  0  0  0
   22.0149   29.2840   72.0590 C   0  0  0  0  0  0
   20.6550   29.0797   71.7991 C   0  0  0  0  0  0
   20.1696   27.7777   71.5666 C   0  0  0  0  0  0
   18.7927   27.5845   71.3065 C   0  0  0  0  0  0
   18.3096   26.2864   71.0736 C   0  0  0  0  0  0
   19.1787   25.1933   71.0995 C   0  0  0  0  0  0
   20.5413   25.3897   71.3568 C   0  0  0  0  0  0
   21.0507   26.6801   71.5927 C   0  0  0  0  0  0
   17.7834   28.7074   71.2593 C   0  0  0  0  0  0
   16.9641   29.1654   72.6928 S   0  0  0  0  0  0
   17.5532   29.3377   70.1064 N   0  0  0  0  0  0
   18.3406   29.0005   68.9257 C   0  0  0  0  0  0
   16.5381   30.3803   69.9933 C   0  0  0  0  0  0
   15.7963   30.3050   68.6478 C   0  0  0  0  0  0
   16.2169   30.8334   67.6523 O   0  0  0  0  0  0
   14.6561   29.6058   68.6598 O   0  0  0  0  0  0
   14.1542   29.5143   67.8738 H   0  0  0  0  0  0
  1  2  1  0  0  0
  1  3  1  0  0  0
  1  4  1  0  0  0
  1  5  1  0  0  0
  5  6  2  0  0  0
  5 16  1  0  0  0
  6  7  1  0  0  0
  6  9  1  0  0  0
  7  8  1  0  0  0
  9 10  2  0  0  0
 10 11  1  0  0  0
 11 12  2  0  0  0
 11 16  1  0  0  0
 12 13  1  0  0  0
 12 17  1  0  0  0
 13 14  2  0  0  0
 14 15  1  0  0  0
 15 16  2  0  0  0
 17 18  2  0  0  0
 17 19  1  0  0  0
 19 20  1  0  0  0
 19 21  1  0  0  0
 21 22  1  0  0  0
 22 23  2  0  0  0
 22 24  1  0  0  0
 24 25  1  0  0  0
M  END
>  <CHROM.0>
-9.01552182,64.26050787,153.99700518,-175.03084681,158.92073355,-52.31360248
-124.01248963,163.02199350,-61.18859492,-61.54190337,-167.20160973,-61.41326028
-60.50081437,170.43496116

>  <CHROM.1>
7.91938203,108.07446368,-90.17355918,-141.90077726,-85.49177478,-179.66447166
20.07142694,27.86206942,71.09621466,0.46594612,0.20090293,2.91407104

>  <FORMUL>
      TOL    C16 H14 F3 N1 O3 S1

>  <HET>
 TOL  A 320      24

>  <HETNAM>
     TOL TOLRESTAT

>  <Name>
TOL.pdb

>  <RI>
0

>  <Rbt.Current_Directory>
/home/malgorzata/Desktop/rDOCK_IFD/Wyniki/1a_aldose_reductase

>  <Rbt.Executable>
rbdock ($Id: //depot/dev/client3/rdock/2013.1/src/exe/rbdock.cxx#4 $)

>  <Rbt.Library>
libRbt.so (2013.1, Build901 2013/11/27)

>  <Rbt.Parameter_File>
/home/malgorzata/Desktop/rDock_2013.1_src/data/scripts/soft_docking.prm

>  <Rbt.Receptor>
cavity.prm

>  <SCORE>
-44.2601

>  <SCORE.INTER>
-31.0866

>  <SCORE.INTER.CONST>
1

>  <SCORE.INTER.POLAR>
-2.86638

>  <SCORE.INTER.REPUL>
0

>  <SCORE.INTER.ROT>
5

>  <SCORE.INTER.VDW>
-31.7409

>  <SCORE.INTER.norm>
-1.29528

>  <SCORE.INTRA>
-4.69524

>  <SCORE.INTRA.DIHEDRAL>
4.65844

>  <SCORE.INTRA.DIHEDRAL.0>
16.9783

>  <SCORE.INTRA.POLAR>
0

>  <SCORE.INTRA.POLAR.0>
0

>  <SCORE.INTRA.REPUL>
0

>  <SCORE.INTRA.REPUL.0>
0

>  <SCORE.INTRA.VDW>
-5.62692

>  <SCORE.INTRA.VDW.0>
4.87734

>  <SCORE.INTRA.norm>
-0.195635

>  <SCORE.RESTR>
0.45992

>  <SCORE.RESTR.CAVITY>
0.45992

>  <SCORE.RESTR.norm>
0.0191633

>  <SCORE.SYSTEM>
-8.93814

>  <SCORE.SYSTEM.CONST>
0

>  <SCORE.SYSTEM.DIHEDRAL>
5.07049

>  <SCORE.SYSTEM.POLAR>
-2.83265

>  <SCORE.SYSTEM.REPUL>
1.16943

>  <SCORE.SYSTEM.VDW>
-7.68953

>  <SCORE.SYSTEM.norm>
-0.372423

>  <SCORE.heavy>
24

>  <SCORE.norm>
-1.84417

$$$$
TOL.pdb
  rDOCK(R)          3D
libRbt.so/2013.1/901 2013/11/27
 25 26  0  0  0  0  0  0  0  0999 V2000
   16.0982   30.6283   65.4849 C   0  0  0  0  0  0
   14.9191   29.9982   65.7160 F   0  0  0  0  0  0
   16.2765   30.6509   64.1374 F   0  0  0  0  0  0
   15.9745   31.9181   65.8973 F   0  0  0  0  0  0
   17.2675   29.9309   66.2133 C   0  0  0  0  0  0
   18.4543   29.4967   65.5675 C   0  0  0  0  0  0
   18.5983   29.6855   64.2683 O   0  0  0  0  0  0
   18.3831   28.5060   63.5111 C   0  0  0  0  0  0
   19.4637   28.8648   66.3265 C   0  0  0  0  0  0
   19.3060   28.6643   67.7025 C   0  0  0  0  0  0
   18.1282   29.0917   68.3467 C   0  0  0  0  0  0
   17.9805   28.8819   69.7378 C   0  0  0  0  0  0
   16.8066   29.3093   70.3796 C   0  0  0  0  0  0
   15.7911   29.9352   69.6530 C   0  0  0  0  0  0
   15.9424   30.1414   68.2760 C   0  0  0  0  0  0
   17.1089   29.7232   67.6092 C   0  0  0  0  0  0
   19.0261   28.2149   70.6002 C   0  0  0  0  0  0
   19.1573   26.5065   70.5966 S   0  0  0  0  0  0
   19.8434   28.9641   71.3419 N   0  0  0  0  0  0
   19.7818   30.4183   71.2451 C   0  0  0  0  0  0
   20.8221   28.3660   72.2443 C   0  0  0  0  0  0
   22.0623   27.8658   71.4839 C   0  0  0  0  0  0
   21.9836   27.3261   70.4118 O   0  0  0  0  0  0
   23.2336   28.0792   72.0937 O   0  0  0  0  0  0
   23.9952   28.2828   71.5872 H   0  0  0  0  0  0
  1  2  1  0  0  0
  1  3  1  0  0  0
  1  4  1  0  0  0
  1  5  1  0  0  0
  5  6  2  0  0  0
  5 16  1  0  0  0
  6  7  1  0  0  0
  6  9  1  0  0  0
  7  8  1  0  0  0
  9 10  2  0  0  0
 10 11  1  0  0  0
 11 12  2  0  0  0
 11 16  1  0  0  0
 12 13  1  0  0  0
 12 17  1  0  0  0
 13 14  2  0  0  0
 14 15  1  0  0  0
 15 16  2  0  0  0
 17 18  2  0  0  0
 17 19  1  0  0  0
 19 20  1  0  0  0
 19 21  1  0  0  0
 21 22  1  0  0  0
 22 23  2  0  0  0
 22 24  1  0  0  0
 24 25  1  0  0  0
M  END
>  <CHROM.0>
94.37301978,44.66614729,-18.93451393,177.12217522,-52.08202448,176.54915038
118.04500745,-152.59999260,-61.18859492,-61.54190337,32.00293685,-61.41326028
-60.50081437,-137.88842532

>  <CHROM.1>
126.30106019,-102.81822611,-79.26341085,78.58069041,-39.38872782,-144.55232935
18.44467958,29.12873924,68.29421275,2.21856217,0.41208935,-1.50923053

>  <FORMUL>
      TOL    C16 H14 F3 N1 O3 S1

>  <HET>
 TOL  A 320      24

>  <HETNAM>
     TOL TOLRESTAT

>  <Name>
TOL.pdb

>  <RI>
0

>  <Rbt.Current_Directory>
/home/malgorzata/Desktop/rDOCK_IFD/Wyniki/1a_aldose_reductase

>  <Rbt.Executable>
rbdock ($Id: //depot/dev/client3/rdock/2013.1/src/exe/rbdock.cxx#4 $)

>  <Rbt.Library>
libRbt.so (2013.1, Build901 2013/11/27)

>  <Rbt.Parameter_File>
/home/malgorzata/Desktop/rDock_2013.1_src/data/scripts/soft_docking.prm

>  <Rbt.Receptor>
cavity.prm

>  <SCORE>
-46.921

>  <SCORE.INTER>
-32.3583

>  <SCORE.INTER.CONST>
1

>  <SCORE.INTER.POLAR>
-0.748863

>  <SCORE.INTER.REPUL>
0

>  <SCORE.INTER.ROT>
5

>  <SCORE.INTER.VDW>
-40.2121

>  <SCORE.INTER.norm>
-1.34826

>  <SCORE.INTRA>
-4.8555

>  <SCORE.INTRA.DIHEDRAL>
12.2063

>  <SCORE.INTRA.DIHEDRAL.0>
16.9783

>  <SCORE.INTRA.POLAR>
0

>  <SCORE.INTRA.POLAR.0>
0

>  <SCORE.INTRA.REPUL>
0

>  <SCORE.INTRA.REPUL.0>
0

>  <SCORE.INTRA.VDW>
-7.29677

>  <SCORE.INTRA.VDW.0>
4.87734

>  <SCORE.INTRA.norm>
-0.202313

>  <SCORE.RESTR>
0

>  <SCORE.RESTR.CAVITY>
0

>  <SCORE.RESTR.norm>
0

>  <SCORE.SYSTEM>
-9.70723

>  <SCORE.SYSTEM.CONST>
0

>  <SCORE.SYSTEM.DIHEDRAL>
11.146

>  <SCORE.SYSTEM.POLAR>
-4.25934

>  <SCORE.SYSTEM.REPUL>
1.16943

>  <SCORE.SYSTEM.VDW>
-6.64562

>  <SCORE.SYSTEM.norm>
-0.404468

>  <SCORE.heavy>
24

>  <SCORE.norm>
-1.95504

$$$$
TOL.pdb
  rDOCK(R)          3D
libRbt.so/2013.1/901 2013/11/27
 25 26  0  0  0  0  0  0  0  0999 V2000
   16.3921   28.9309   63.5683 C   0  0  0  0  0  0
   16.3953   28.0544   62.5327 F   0  0  0  0  0  0
   17.2156   29.9553   63.2212 F   0  0  0  0  0  0
   15.1377   29.4428   63.6832 F   0  0  0  0  0  0
   16.8300   28.2553   64.8859 C   0  0  0  0  0  0
   17.3609   26.9414   64.9619 C   0  0  0  0  0  0
   17.5017   26.2283   63.8591 O   0  0  0  0  0  0
   18.6955   26.5284   63.1552 C   0  0  0  0  0  0
   17.7279   26.4149   66.2197 C   0  0  0  0  0  0
   17.5746   27.1728   67.3862 C   0  0  0  0  0  0
   17.0456   28.4766   67.3151 C   0  0  0  0  0  0
   16.8943   29.2318   68.5016 C   0  0  0  0  0  0
   16.3681   30.5320   68.4299 C   0  0  0  0  0  0
   15.9948   31.0770   67.1992 C   0  0  0  0  0  0
   16.1472   30.3256   66.0272 C   0  0  0  0  0  0
   16.6725   29.0209   66.0716 C   0  0  0  0  0  0
   17.2716   28.7225   69.8727 C   0  0  0  0  0  0
   16.5526   27.2844   70.4652 S   0  0  0  0  0  0
   18.1699   29.3898   70.5988 N   0  0  0  0  0  0
   18.8456   30.5501   70.0288 C   0  0  0  0  0  0
   18.5154   28.9785   71.9558 C   0  0  0  0  0  0
   20.0308   28.7674   72.1152 C   0  0  0  0  0  0
   20.6858   28.1742   71.2991 O   0  0  0  0  0  0
   20.5703   29.2952   73.2197 O   0  0  0  0  0  0
   20.0399   29.4352   73.9793 H   0  0  0  0  0  0
  1  2  1  0  0  0
  1  3  1  0  0  0
  1  4  1  0  0  0
  1  5  1  0  0  0
  5  6  2  0  0  0
  5 16  1  0  0  0
  6  7  1  0  0  0
  6  9  1  0  0  0
  7  8  1  0  0  0
  9 10  2  0  0  0
 10 11  1  0  0  0
 11 12  2  0  0  0
 11 16  1  0  0  0
 12 13  1  0  0  0
 12 17  1  0  0  0
 13 14  2  0  0  0
 14 15  1  0  0  0
 15 16  2  0  0  0
 17 18  2  0  0  0
 17 19  1  0  0  0
 19 20  1  0  0  0
 19 21  1  0  0  0
 21 22  1  0  0  0
 22 23  2  0  0  0
 22 24  1  0  0  0
 24 25  1  0  0  0
M  END
>  <CHROM.0>
40.66512029,60.72638212,160.89016675,162.12624292,-178.89557101,48.99176618
-163.14276457,-129.40233953,-61.18859492,-61.54190337,-178.23584051,-61.41326028
-60.50081437,-148.68237053

>  <CHROM.1>
8.87471751,82.77431308,-57.79478160,125.34918574,-44.63002763,25.10065518
17.49112259,28.59541421,67.40043118,2.06899401,0.96677170,-2.06354018

>  <FORMUL>
      TOL    C16 H14 F3 N1 O3 S1

>  <HET>
 TOL  A 320      24

>  <HETNAM>
     TOL TOLRESTAT

>  <Name>
TOL.pdb

>  <RI>
0

>  <Rbt.Current_Directory>
/home/malgorzata/Desktop/rDOCK_IFD/Wyniki/1a_aldose_reductase

>  <Rbt.Executable>
rbdock ($Id: //depot/dev/client3/rdock/2013.1/src/exe/rbdock.cxx#4 $)

>  <Rbt.Library>
libRbt.so (2013.1, Build901 2013/11/27)

>  <Rbt.Parameter_File>
/home/malgorzata/Desktop/rDock_2013.1_src/data/scripts/soft_docking.prm

>  <Rbt.Receptor>
cavity.prm

>  <SCORE>
-36.8522

>  <SCORE.INTER>
-22.7701

>  <SCORE.INTER.CONST>
1

>  <SCORE.INTER.POLAR>
-0.525371

>  <SCORE.INTER.REPUL>
0

>  <SCORE.INTER.ROT>
5

>  <SCORE.INTER.VDW>
-31.3838

>  <SCORE.INTER.norm>
-0.948752

>  <SCORE.INTRA>
-3.24801

>  <SCORE.INTRA.DIHEDRAL>
5.5346

>  <SCORE.INTRA.DIHEDRAL.0>
16.9783

>  <SCORE.INTRA.POLAR>
0

>  <SCORE.INTRA.POLAR.0>
0

>  <SCORE.INTRA.REPUL>
0

>  <SCORE.INTRA.REPUL.0>
0

>  <SCORE.INTRA.VDW>
-4.35493

>  <SCORE.INTRA.VDW.0>
4.87734

>  <SCORE.INTRA.norm>
-0.135334

>  <SCORE.RESTR>
0.158394

>  <SCORE.RESTR.CAVITY>
0.158394

>  <SCORE.RESTR.norm>
0.00659975

>  <SCORE.SYSTEM>
-10.9925

>  <SCORE.SYSTEM.CONST>
0

>  <SCORE.SYSTEM.DIHEDRAL>
4.82872

>  <SCORE.SYSTEM.POLAR>
-3.3636

>  <SCORE.SYSTEM.REPUL>
1.16943

>  <SCORE.SYSTEM.VDW>
-7.8178

>  <SCORE.SYSTEM.norm>
-0.458022

>  <SCORE.heavy>
24

>  <SCORE.norm>
-1.53551

$$$$
TOL.pdb
  rDOCK(R)          3D
libRbt.so/2013.1/901 2013/11/27
 25 26  0  0  0  0  0  0  0  0999 V2000
   17.8938   26.2954   62.5365 C   0  0  0  0  0  0
   17.1755   25.4712   61.7331 F   0  0  0  0  0  0
   19.1055   25.7079   62.7228 F   0  0  0  0  0  0
   18.1080   27.4576   61.8642 F   0  0  0  0  0  0
   17.1668   26.5622   63.8723 C   0  0  0  0  0  0
   15.9597   25.9225   64.2566 C   0  0  0  0  0  0
   15.3998   25.0420   63.4469 O   0  0  0  0  0  0
   15.7945   23.7082   63.7225 C   0  0  0  0  0  0
   15.3731   26.2414   65.5010 C   0  0  0  0  0  0
   15.9682   27.1770   66.3549 C   0  0  0  0  0  0
   17.1652   27.8160   65.9758 C   0  0  0  0  0  0
   17.7558   28.7608   66.8472 C   0  0  0  0  0  0
   18.9498   29.3966   66.4692 C   0  0  0  0  0  0
   19.5505   29.1018   65.2432 C   0  0  0  0  0  0
   18.9623   28.1651   64.3841 C   0  0  0  0  0  0
   17.7666   27.5136   64.7394 C   0  0  0  0  0  0
   17.1760   29.1393   68.1898 C   0  0  0  0  0  0
   15.6317   29.8783   68.2630 S   0  0  0  0  0  0
   17.8661   28.8807   69.3016 N   0  0  0  0  0  0
   19.1288   28.1549   69.2190 C   0  0  0  0  0  0
   17.3816   29.2900   70.6160 C   0  0  0  0  0  0
   16.4899   28.2101   71.2525 C   0  0  0  0  0  0
   15.3322   28.0761   70.9549 O   0  0  0  0  0  0
   17.0927   27.4265   72.1537 O   0  0  0  0  0  0
   17.9491   27.6441   72.4654 H   0  0  0  0  0  0
  1  2  1  0  0  0
  1  3  1  0  0  0
  1  4  1  0  0  0
  1  5  1  0  0  0
  5  6  2  0  0  0
  5 16  1  0  0  0
  6  7  1  0  0  0
  6  9  1  0  0  0
  7  8  1  0  0  0
  9 10  2  0  0  0
 10 11  1  0  0  0
 11 12  2  0  0  0
 11 16  1  0  0  0
 12 13  1  0  0  0
 12 17  1  0  0  0
 13 14  2  0  0  0
 14 15  1  0  0  0
 15 16  2  0  0  0
 17 18  2  0  0  0
 17 19  1  0  0  0
 19 20  1  0  0  0
 19 21  1  0  0  0
 21 22  1  0  0  0
 22 23  2  0  0  0
 22 24  1  0  0  0
 24 25  1  0  0  0
M  END
>  <CHROM.0>
-13.21133936,2.06048895,-28.93425644,159.61886836,-65.29845838,55.74312111
68.76493499,177.83209253,-61.18859492,-61.54190337,56.02346343,-61.41326028
-60.50081437,-170.96145943

>  <CHROM.1>
5.53104875,93.35830345,-62.47565568,89.12710423,-80.39954374,10.42171846
17.19044520,27.51469628,66.24791418,-1.48430137,0.69825897,1.16303707

>  <FORMUL>
      TOL    C16 H14 F3 N1 O3 S1

>  <HET>
 TOL  A 320      24

>  <HETNAM>
     TOL TOLRESTAT

>  <Name>
TOL.pdb

>  <RI>
0

>  <Rbt.Current_Directory>
/home/malgorzata/Desktop/rDOCK_IFD/Wyniki/1a_aldose_reductase

>  <Rbt.Executable>
rbdock ($Id: //depot/dev/client3/rdock/2013.1/src/exe/rbdock.cxx#4 $)

>  <Rbt.Library>
libRbt.so (2013.1, Build901 2013/11/27)

>  <Rbt.Parameter_File>
/home/malgorzata/Desktop/rDock_2013.1_src/data/scripts/soft_docking.prm

>  <Rbt.Receptor>
cavity.prm

>  <SCORE>
-38.472

>  <SCORE.INTER>
-24.4085

>  <SCORE.INTER.CONST>
1

>  <SCORE.INTER.POLAR>
-1.78595

>  <SCORE.INTER.REPUL>
0.32318

>  <SCORE.INTER.ROT>
5

>  <SCORE.INTER.VDW>
-30.3522

>  <SCORE.INTER.norm>
-1.01702

>  <SCORE.INTRA>
-5.76773

>  <SCORE.INTRA.DIHEDRAL>
3.16646

>  <SCORE.INTRA.DIHEDRAL.0>
16.9783

>  <SCORE.INTRA.POLAR>
0

>  <SCORE.INTRA.POLAR.0>
0

>  <SCORE.INTRA.REPUL>
0

>  <SCORE.INTRA.REPUL.0>
0

>  <SCORE.INTRA.VDW>
-6.40102

>  <SCORE.INTRA.VDW.0>
4.87734

>  <SCORE.INTRA.norm>
-0.240322

>  <SCORE.RESTR>
0.695403

>  <SCORE.RESTR.CAVITY>
0.695403

>  <SCORE.RESTR.norm>
0.0289751

>  <SCORE.SYSTEM>
-8.9912

>  <SCORE.SYSTEM.CONST>
0

>  <SCORE.SYSTEM.DIHEDRAL>
9.79829

>  <SCORE.SYSTEM.POLAR>
-4.04959

>  <SCORE.SYSTEM.REPUL>
1.16943

>  <SCORE.SYSTEM.VDW>
-5.9689

>  <SCORE.SYSTEM.norm>
-0.374633

>  <SCORE.heavy>
24

>  <SCORE.norm>
-1.603

$$$$
TOL.pdb
  rDOCK(R)          3D
libRbt.so/2013.1/901 2013/11/27
 25 26  0  0  0  0  0  0  0  0999 V2000
   23.2432   28.7301   72.9686 C   0  0  0  0  0  0
   24.4099   28.0403   72.9076 F   0  0  0  0  0  0
   22.9140   28.8340   74.2835 F   0  0  0  0  0  0
   23.4736   29.9891   72.5096 F   0  0  0  0  0  0
   22.1327   28.0424   72.1451 C   0  0  0  0  0  0
   22.3134   26.8271   71.4347 C   0  0  0  0  0  0
   23.4879   26.2237   71.4594 O   0  0  0  0  0  0
   23.7066   25.4879   72.6517 C   0  0  0  0  0  0
   21.2318   26.2830   70.7079 C   0  0  0  0  0  0
   19.9896   26.9270   70.6821 C   0  0  0  0  0  0
   19.8071   28.1349   71.3840 C   0  0  0  0  0  0
   18.5470   28.7767   71.3487 C   0  0  0  0  0  0
   18.3654   29.9802   72.0497 C   0  0  0  0  0  0
   19.4186   30.5419   72.7750 C   0  0  0  0  0  0
   20.6641   29.9023   72.8075 C   0  0  0  0  0  0
   20.8720   28.6953   72.1144 C   0  0  0  0  0  0
   17.3547   28.2408   70.5916 C   0  0  0  0  0  0
   17.1425   28.6636   68.9447 S   0  0  0  0  0  0
   16.4906   27.4342   71.2096 N   0  0  0  0  0  0
   16.7518   27.0042   72.5788 C   0  0  0  0  0  0
   15.2867   26.9475   70.5434 C   0  0  0  0  0  0
   14.2438   28.0650   70.3707 C   0  0  0  0  0  0
   13.9581   28.5156   69.2926 O   0  0  0  0  0  0
   13.6720   28.4954   71.5008 O   0  0  0  0  0  0
   14.1854   28.9415   72.1453 H   0  0  0  0  0  0
  1  2  1  0  0  0
  1  3  1  0  0  0
  1  4  1  0  0  0
  1  5  1  0  0  0
  5  6  2  0  0  0
  5 16  1  0  0  0
  6  7  1  0  0  0
  6  9  1  0  0  0
  7  8  1  0  0  0
  9 10  2  0  0  0
 10 11  1  0  0  0
 11 12  2  0  0  0
 11 16  1  0  0  0
 12 13  1  0  0  0
 12 17  1  0  0  0
 13 14  2  0  0  0
 14 15  1  0  0  0
 15 16  2  0  0  0
 17 18  2  0  0  0
 17 19  1  0  0  0
 19 20  1  0  0  0
 19 21  1  0  0  0
 21 22  1  0  0  0
 22 23  2  0  0  0
 22 24  1  0  0  0
 24 25  1  0  0  0
M  END
>  <CHROM.0>
13.29602710,-71.19763749,-146.14784235,-163.46827002,60.71783283,-60.95403001
102.87604164,-115.20416469,-61.18859492,-61.54190337,66.68983744,-61.41326028
-60.50081437,73.20510450

>  <CHROM.1>
1.01838445,79.19907069,-87.89468170,-71.94810732,111.14678493,66.07859728
19.53830172,28.15231914,71.56083443,0.10530522,-0.25516018,0.50800853

>  <FORMUL>
      TOL    C16 H14 F3 N1 O3 S1

>  <HET>
 TOL  A 320      24

>  <HETNAM>
     TOL TOLRESTAT

>  <Name>
TOL.pdb

>  <RI>
0

>  <Rbt.Current_Directory>
/home/malgorzata/Desktop/rDOCK_IFD/Wyniki/1a_aldose_reductase

>  <Rbt.Executable>
rbdock ($Id: //depot/dev/client3/rdock/2013.1/src/exe/rbdock.cxx#4 $)

>  <Rbt.Library>
libRbt.so (2013.1, Build901 2013/11/27)

>  <Rbt.Parameter_File>
/home/malgorzata/Desktop/rDock_2013.1_src/data/scripts/soft_docking.prm

>  <Rbt.Receptor>
cavity.prm

>  <SCORE>
-42.9624

>  <SCORE.INTER>
-31.9212

>  <SCORE.INTER.CONST>
1

>  <SCORE.INTER.POLAR>
-2.33343

>  <SCORE.INTER.REPUL>
0.0191319

>  <SCORE.INTER.ROT>
5

>  <SCORE.INTER.VDW>
-34.4832

>  <SCORE.INTER.norm>
-1.33005

>  <SCORE.INTRA>
-1.53459

>  <SCORE.INTRA.DIHEDRAL>
24.1976

>  <SCORE.INTRA.DIHEDRAL.0>
16.9783

>  <SCORE.INTRA.POLAR>
0

>  <SCORE.INTRA.POLAR.0>
0

>  <SCORE.INTRA.REPUL>
0

>  <SCORE.INTRA.REPUL.0>
0

>  <SCORE.INTRA.VDW>
-6.37411

>  <SCORE.INTRA.VDW.0>
4.87734

>  <SCORE.INTRA.norm>
-0.0639412

>  <SCORE.RESTR>
0.400071

>  <SCORE.RESTR.CAVITY>
0.400071

>  <SCORE.RESTR.norm>
0.0166696

>  <SCORE.SYSTEM>
-9.90665

>  <SCORE.SYSTEM.CONST>
0

>  <SCORE.SYSTEM.DIHEDRAL>
3.45587

>  <SCORE.SYSTEM.POLAR>
-2.8333

>  <SCORE.SYSTEM.REPUL>
1.16943

>  <SCORE.SYSTEM.VDW>
-7.84851

>  <SCORE.SYSTEM.norm>
-0.412777

>  <SCORE.heavy>
24

>  <SCORE.norm>
-1.7901

$$$$
TOL.pdb
  rDOCK(R)          3D
libRbt.so/2013.1/901 2013/11/27
 25 26  0  0  0  0  0  0  0  0999 V2000
   24.2624   28.5990   73.1151 C   0  0  0  0  0  0
   23.6690   28.7293   74.3283 F   0  0  0  0  0  0
   24.7162   29.8312   72.7630 F   0  0  0  0  0  0
   25.3493   27.7954   73.2617 F   0  0  0  0  0  0
   23.2897   28.0175   72.0663 C   0  0  0  0  0  0
   23.4029   26.7117   71.5220 C   0  0  0  0  0  0
   24.3865   25.9226   71.9147 O   0  0  0  0  0  0
   24.1662   25.3613   73.1982 C   0  0  0  0  0  0
   22.4610   26.2774   70.5637 C   0  0  0  0  0  0
   21.4218   27.1176   70.1483 C   0  0  0  0  0  0
   21.3076   28.4155   70.6845 C   0  0  0  0  0  0
   20.2536   29.2555   70.2552 C   0  0  0  0  0  0
   20.1396   30.5488   70.7911 C   0  0  0  0  0  0
   21.0586   31.0050   71.7388 C   0  0  0  0  0  0
   22.1000   30.1693   72.1612 C   0  0  0  0  0  0
   22.2361   28.8691   71.6404 C   0  0  0  0  0  0
   19.2166   28.8446   69.2366 C   0  0  0  0  0  0
   19.5960   28.9256   67.5675 S   0  0  0  0  0  0
   18.0246   28.4103   69.6488 N   0  0  0  0  0  0
   17.7649   28.2496   71.0752 C   0  0  0  0  0  0
   16.9656   28.0689   68.7043 C   0  0  0  0  0  0
   16.0149   29.2546   68.4665 C   0  0  0  0  0  0
   16.3913   30.2946   67.9935 O   0  0  0  0  0  0
   14.7402   29.0465   68.8150 O   0  0  0  0  0  0
   14.2011   29.7683   69.0723 H   0  0  0  0  0  0
  1  2  1  0  0  0
  1  3  1  0  0  0
  1  4  1  0  0  0
  1  5  1  0  0  0
  5  6  2  0  0  0
  5 16  1  0  0  0
  6  7  1  0  0  0
  6  9  1  0  0  0
  7  8  1  0  0  0
  9 10  2  0  0  0
 10 11  1  0  0  0
 11 12  2  0  0  0
 11 16  1  0  0  0
 12 13  1  0  0  0
 12 17  1  0  0  0
 13 14  2  0  0  0
 14 15  1  0  0  0
 15 16  2  0  0  0
 17 18  2  0  0  0
 17 19  1  0  0  0
 19 20  1  0  0  0
 19 21  1  0  0  0
 21 22  1  0  0  0
 22 23  2  0  0  0
 22 24  1  0  0  0
 24 25  1  0  0  0
M  END
>  <CHROM.0>
147.44188299,-57.31522725,-144.00092325,111.89546223,-64.01663592,56.12739991
-93.29351663,-133.63644676,-61.18859492,-61.54190337,-121.88391302,-61.41326028
-60.50081437,77.06115506

>  <CHROM.1>
-109.76753861,76.38175487,-80.93175015,-94.37879634,61.81289483,152.27790824
20.95879649,28.50793897,70.81922984,0.03918215,-0.54633720,0.38718525

>  <FORMUL>
      TOL    C16 H14 F3 N1 O3 S1

>  <HET>
 TOL  A 320      24

>  <HETNAM>
     TOL TOLRESTAT

>  <Name>
TOL.pdb

>  <RI>
0

>  <Rbt.Current_Directory>
/home/malgorzata/Desktop/rDOCK_IFD/Wyniki/1a_aldose_reductase

>  <Rbt.Executable>
rbdock ($Id: //depot/dev/client3/rdock/2013.1/src/exe/rbdock.cxx#4 $)

>  <Rbt.Library>
libRbt.so (2013.1, Build901 2013/11/27)

>  <Rbt.Parameter_File>
/home/malgorzata/Desktop/rDock_2013.1_src/data/scripts/soft_docking.prm

>  <Rbt.Receptor>
cavity.prm

>  <SCORE>
-48.3131

>  <SCORE.INTER>
-37.7011

>  <SCORE.INTER.CONST>
1

>  <SCORE.INTER.POLAR>
-2.81619

>  <SCORE.INTER.REPUL>
0.0578055

>  <SCORE.INTER.ROT>
5

>  <SCORE.INTER.VDW>
-38.8151

>  <SCORE.INTER.norm>
-1.57088

>  <SCORE.INTRA>
-4.29625

>  <SCORE.INTRA.DIHEDRAL>
9.53521

>  <SCORE.INTRA.DIHEDRAL.0>
16.9783

>  <SCORE.INTRA.POLAR>
0

>  <SCORE.INTRA.POLAR.0>
0

>  <SCORE.INTRA.REPUL>
0

>  <SCORE.INTRA.REPUL.0>
0

>  <SCORE.INTRA.VDW>
-6.20329

>  <SCORE.INTRA.VDW.0>
4.87734

>  <SCORE.INTRA.norm>
-0.179011

>  <SCORE.RESTR>
0.594136

>  <SCORE.RESTR.CAVITY>
0.594136

>  <SCORE.RESTR.norm>
0.0247557

>  <SCORE.SYSTEM>
-6.9098

>  <SCORE.SYSTEM.CONST>
0

>  <SCORE.SYSTEM.DIHEDRAL>
14.166

>  <SCORE.SYSTEM.POLAR>
-3.56729

>  <SCORE.SYSTEM.REPUL>
1.16943

>  <SCORE.SYSTEM.VDW>
-7.71118

>  <SCORE.SYSTEM.norm>
-0.287908

>  <SCORE.heavy>
24

>  <SCORE.norm>
-2.01304

$$$$
