TOL.pdb
  rDOCK(R)          3D
libRbt.so/2013.1/901 2013/11/27
 25 26  0  0  0  0  0  0  0  0999 V2000
   30.2703   21.9318   73.7686 C   0  0  0  0  0  0
   30.3163   22.0135   72.4150 F   0  0  0  0  0  0
   28.9570   21.9298   74.1197 F   0  0  0  0  0  0
   30.7880   20.7294   74.1360 F   0  0  0  0  0  0
   31.0471   23.0883   74.4344 C   0  0  0  0  0  0
   31.7357   24.0970   73.7116 C   0  0  0  0  0  0
   31.7311   24.0739   72.3911 O   0  0  0  0  0  0
   32.9680   23.6512   71.8411 C   0  0  0  0  0  0
   32.4198   25.1102   74.4185 C   0  0  0  0  0  0
   32.4245   25.1295   75.8178 C   0  0  0  0  0  0
   31.7441   24.1285   76.5388 C   0  0  0  0  0  0
   31.7577   24.1585   77.9530 C   0  0  0  0  0  0
   31.0782   23.1609   78.6712 C   0  0  0  0  0  0
   30.3952   22.1457   77.9977 C   0  0  0  0  0  0
   30.3840   22.1207   76.5975 C   0  0  0  0  0  0
   31.0563   23.1086   75.8543 C   0  0  0  0  0  0
   32.4692   25.2175   78.7617 C   0  0  0  0  0  0
   34.1725   25.3643   78.6458 S   0  0  0  0  0  0
   31.7620   26.0342   79.5442 N   0  0  0  0  0  0
   30.3052   25.9585   79.5429 C   0  0  0  0  0  0
   32.4080   27.0261   80.3979 C   0  0  0  0  0  0
   32.5856   28.3699   79.6706 C   0  0  0  0  0  0
   31.9094   29.3318   79.9247 O   0  0  0  0  0  0
   33.5481   28.3967   78.7420 O   0  0  0  0  0  0
   33.7550   29.1992   78.3048 H   0  0  0  0  0  0
  1  2  1  0  0  0
  1  3  1  0  0  0
  1  4  1  0  0  0
  1  5  1  0  0  0
  5  6  2  0  0  0
  5 16  1  0  0  0
  6  7  1  0  0  0
  6  9  1  0  0  0
  7  8  1  0  0  0
  9 10  2  0  0  0
 10 11  1  0  0  0
 11 12  2  0  0  0
 11 16  1  0  0  0
 12 13  1  0  0  0
 12 17  1  0  0  0
 13 14  2  0  0  0
 14 15  1  0  0  0
 15 16  2  0  0  0
 17 18  2  0  0  0
 17 19  1  0  0  0
 19 20  1  0  0  0
 19 21  1  0  0  0
 21 22  1  0  0  0
 22 23  2  0  0  0
 22 24  1  0  0  0
 24 25  1  0  0  0
M  END
>  <CHROM.0>
-92.57876994,-97.30800431,178.55505881,13.69718550,139.04834583,-64.18002533
-88.21997059,-60.02374828,63.24699326,61.29451540,-61.54190337,62.43431491
-61.41326028,-60.50081437,-119.76919721

>  <CHROM.1>
-0.78069557,-105.65439278,-62.98024864,90.22798271,106.37601614,-175.43563446
31.68123671,24.43824229,76.49490131,1.98593623,-0.97289907,-1.89612029

>  <FORMUL>
      TOL    C16 H14 F3 N1 O3 S1

>  <HET>
 TOL  A 320      24

>  <HETNAM>
     TOL TOLRESTAT

>  <Name>
TOL.pdb

>  <RI>
0

>  <Rbt.Current_Directory>
/home/malgorzata/Desktop/rDOCK_IFD/Wyniki/1c_aldose_reductase/IFD

>  <Rbt.Executable>
rbdock ($Id: //depot/dev/client3/rdock/2013.1/src/exe/rbdock.cxx#4 $)

>  <Rbt.Library>
libRbt.so (2013.1, Build901 2013/11/27)

>  <Rbt.Parameter_File>
/home/malgorzata/Desktop/rDock_2013.1_src/data/scripts/hard_docking.prm

>  <Rbt.Receptor>
cavity.prm

>  <SCORE>
-20.7767

>  <SCORE.INTER>
-4.47594

>  <SCORE.INTER.CONST>
1

>  <SCORE.INTER.POLAR>
-0.981778

>  <SCORE.INTER.REPUL>
0.105431

>  <SCORE.INTER.ROT>
5

>  <SCORE.INTER.VDW>
-12.0651

>  <SCORE.INTER.norm>
-0.186498

>  <SCORE.INTRA>
-5.48377

>  <SCORE.INTRA.DIHEDRAL>
2.33593

>  <SCORE.INTRA.DIHEDRAL.0>
16.9783

>  <SCORE.INTRA.POLAR>
0

>  <SCORE.INTRA.POLAR.0>
0

>  <SCORE.INTRA.REPUL>
0

>  <SCORE.INTRA.REPUL.0>
0

>  <SCORE.INTRA.VDW>
-6.65174

>  <SCORE.INTRA.VDW.0>
4.87734

>  <SCORE.INTRA.norm>
-0.22849

>  <SCORE.RESTR>
3.61169

>  <SCORE.RESTR.CAVITY>
3.61169

>  <SCORE.RESTR.norm>
0.150487

>  <SCORE.SYSTEM>
-14.4287

>  <SCORE.SYSTEM.CONST>
0

>  <SCORE.SYSTEM.DIHEDRAL>
6.26434

>  <SCORE.SYSTEM.POLAR>
-3.46213

>  <SCORE.SYSTEM.REPUL>
0.136104

>  <SCORE.SYSTEM.VDW>
-6.47015

>  <SCORE.SYSTEM.norm>
-0.601195

>  <SCORE.heavy>
24

>  <SCORE.norm>
-0.865697

$$$$
TOL.pdb
  rDOCK(R)          3D
libRbt.so/2013.1/901 2013/11/27
 25 26  0  0  0  0  0  0  0  0999 V2000
   27.3418   26.8395   81.4817 C   0  0  0  0  0  0
   26.1400   26.6109   80.8949 F   0  0  0  0  0  0
   27.6797   28.1262   81.2016 F   0  0  0  0  0  0
   27.1770   26.7497   82.8284 F   0  0  0  0  0  0
   28.4120   25.8391   80.9937 C   0  0  0  0  0  0
   29.3343   25.1870   81.8528 C   0  0  0  0  0  0
   29.3015   25.4279   83.1510 O   0  0  0  0  0  0
   30.3561   26.2714   83.5836 C   0  0  0  0  0  0
   30.2773   24.2909   81.3034 C   0  0  0  0  0  0
   30.3105   24.0405   79.9270 C   0  0  0  0  0  0
   29.3982   24.6879   79.0706 C   0  0  0  0  0  0
   29.4430   24.4272   77.6810 C   0  0  0  0  0  0
   28.5324   25.0720   76.8279 C   0  0  0  0  0  0
   27.5904   25.9648   77.3441 C   0  0  0  0  0  0
   27.5494   26.2190   78.7207 C   0  0  0  0  0  0
   28.4501   25.5856   79.5969 C   0  0  0  0  0  0
   30.4265   23.4779   77.0379 C   0  0  0  0  0  0
   29.8638   21.9994   76.3796 S   0  0  0  0  0  0
   31.7174   23.8085   76.9775 N   0  0  0  0  0  0
   32.1533   25.1184   77.4485 C   0  0  0  0  0  0
   32.7165   22.8961   76.4305 C   0  0  0  0  0  0
   33.1649   21.8566   77.4720 C   0  0  0  0  0  0
   33.9624   22.1150   78.3348 O   0  0  0  0  0  0
   32.6015   20.6489   77.3564 O   0  0  0  0  0  0
   31.9525   20.4958   76.6982 H   0  0  0  0  0  0
  1  2  1  0  0  0
  1  3  1  0  0  0
  1  4  1  0  0  0
  1  5  1  0  0  0
  5  6  2  0  0  0
  5 16  1  0  0  0
  6  7  1  0  0  0
  6  9  1  0  0  0
  7  8  1  0  0  0
  9 10  2  0  0  0
 10 11  1  0  0  0
 11 12  2  0  0  0
 11 16  1  0  0  0
 12 13  1  0  0  0
 12 17  1  0  0  0
 13 14  2  0  0  0
 14 15  1  0  0  0
 15 16  2  0  0  0
 17 18  2  0  0  0
 17 19  1  0  0  0
 19 20  1  0  0  0
 19 21  1  0  0  0
 21 22  1  0  0  0
 22 23  2  0  0  0
 22 24  1  0  0  0
 24 25  1  0  0  0
M  END
>  <CHROM.0>
-90.79943606,91.87532385,178.50243021,-176.45935344,-131.44993403,-64.20855737
-86.09565384,-60.02374828,60.82844432,167.24143621,-61.54190337,-172.55361128
-61.41326028,-60.50081437,-72.01849540

>  <CHROM.1>
-135.94873321,-104.59777571,110.45003995,-82.07124198,-79.31334153,-2.68713699
29.71224036,24.63813054,79.28480776,2.26523507,-0.55628583,1.25150852

>  <FORMUL>
      TOL    C16 H14 F3 N1 O3 S1

>  <HET>
 TOL  A 320      24

>  <HETNAM>
     TOL TOLRESTAT

>  <Name>
TOL.pdb

>  <RI>
0

>  <Rbt.Current_Directory>
/home/malgorzata/Desktop/rDOCK_IFD/Wyniki/1c_aldose_reductase/IFD

>  <Rbt.Executable>
rbdock ($Id: //depot/dev/client3/rdock/2013.1/src/exe/rbdock.cxx#4 $)

>  <Rbt.Library>
libRbt.so (2013.1, Build901 2013/11/27)

>  <Rbt.Parameter_File>
/home/malgorzata/Desktop/rDock_2013.1_src/data/scripts/hard_docking.prm

>  <Rbt.Receptor>
cavity.prm

>  <SCORE>
-22.6557

>  <SCORE.INTER>
-4.0854

>  <SCORE.INTER.CONST>
1

>  <SCORE.INTER.POLAR>
-0.102905

>  <SCORE.INTER.REPUL>
0

>  <SCORE.INTER.ROT>
5

>  <SCORE.INTER.VDW>
-14.1355

>  <SCORE.INTER.norm>
-0.170225

>  <SCORE.INTRA>
-5.78486

>  <SCORE.INTRA.DIHEDRAL>
3.25792

>  <SCORE.INTRA.DIHEDRAL.0>
16.9783

>  <SCORE.INTRA.POLAR>
-0.243498

>  <SCORE.INTRA.POLAR.0>
0

>  <SCORE.INTRA.REPUL>
0

>  <SCORE.INTRA.REPUL.0>
0

>  <SCORE.INTRA.VDW>
-6.58592

>  <SCORE.INTRA.VDW.0>
4.87734

>  <SCORE.INTRA.norm>
-0.241036

>  <SCORE.RESTR>
1.61014

>  <SCORE.RESTR.CAVITY>
1.61014

>  <SCORE.RESTR.norm>
0.0670892

>  <SCORE.SYSTEM>
-14.3955

>  <SCORE.SYSTEM.CONST>
0

>  <SCORE.SYSTEM.DIHEDRAL>
6.57173

>  <SCORE.SYSTEM.POLAR>
-3.83809

>  <SCORE.SYSTEM.REPUL>
0.0694257

>  <SCORE.SYSTEM.VDW>
-4.97904

>  <SCORE.SYSTEM.norm>
-0.599814

>  <SCORE.heavy>
24

>  <SCORE.norm>
-0.943986

$$$$
TOL.pdb
  rDOCK(R)          3D
libRbt.so/2013.1/901 2013/11/27
 25 26  0  0  0  0  0  0  0  0999 V2000
   31.1281   20.7455   77.3865 C   0  0  0  0  0  0
   32.4760   20.5979   77.4339 F   0  0  0  0  0  0
   30.7612   20.6076   76.0848 F   0  0  0  0  0  0
   30.5671   19.7160   78.0751 F   0  0  0  0  0  0
   30.6841   22.1027   77.9739 C   0  0  0  0  0  0
   29.9461   23.0741   77.2487 C   0  0  0  0  0  0
   29.6032   22.8338   75.9961 O   0  0  0  0  0  0
   30.2471   23.6951   75.0716 C   0  0  0  0  0  0
   29.5924   24.2872   77.8792 C   0  0  0  0  0  0
   29.9600   24.5390   79.2058 C   0  0  0  0  0  0
   30.6948   23.5782   79.9282 C   0  0  0  0  0  0
   31.0615   23.8455   81.2680 C   0  0  0  0  0  0
   31.7929   22.8867   81.9879 C   0  0  0  0  0  0
   32.1580   21.6791   81.3884 C   0  0  0  0  0  0
   31.7920   21.4188   80.0618 C   0  0  0  0  0  0
   31.0586   22.3624   79.3188 C   0  0  0  0  0  0
   30.7091   25.1223   81.9942 C   0  0  0  0  0  0
   29.1102   25.3537   82.5651 S   0  0  0  0  0  0
   31.6496   26.0467   82.1948 N   0  0  0  0  0  0
   33.0265   25.7793   81.7940 C   0  0  0  0  0  0
   31.3434   27.3256   82.8278 C   0  0  0  0  0  0
   30.9199   28.3826   81.7935 C   0  0  0  0  0  0
   29.8262   28.3886   81.2926 O   0  0  0  0  0  0
   31.8487   29.2979   81.4956 O   0  0  0  0  0  0
   31.6578   29.9747   80.8763 H   0  0  0  0  0  0
  1  2  1  0  0  0
  1  3  1  0  0  0
  1  4  1  0  0  0
  1  5  1  0  0  0
  5  6  2  0  0  0
  5 16  1  0  0  0
  6  7  1  0  0  0
  6  9  1  0  0  0
  7  8  1  0  0  0
  9 10  2  0  0  0
 10 11  1  0  0  0
 11 12  2  0  0  0
 11 16  1  0  0  0
 12 13  1  0  0  0
 12 17  1  0  0  0
 13 14  2  0  0  0
 14 15  1  0  0  0
 15 16  2  0  0  0
 17 18  2  0  0  0
 17 19  1  0  0  0
 19 20  1  0  0  0
 19 21  1  0  0  0
 21 22  1  0  0  0
 22 23  2  0  0  0
 22 24  1  0  0  0
 24 25  1  0  0  0
M  END
>  <CHROM.0>
-93.25075399,-89.13208004,-175.47075883,-171.35838137,143.73369152,-158.65021236
-83.88504079,-60.02374828,64.86856473,166.98134965,-61.54190337,62.38157195
-61.41326028,-60.50081437,148.65618028

>  <CHROM.1>
121.53737639,-113.54947168,76.12739426,-89.11435292,76.61610361,-179.69869056
30.84082551,23.92089723,79.71169037,-1.58506233,-1.23623840,0.68732675

>  <FORMUL>
      TOL    C16 H14 F3 N1 O3 S1

>  <HET>
 TOL  A 320      24

>  <HETNAM>
     TOL TOLRESTAT

>  <Name>
TOL.pdb

>  <RI>
0

>  <Rbt.Current_Directory>
/home/malgorzata/Desktop/rDOCK_IFD/Wyniki/1c_aldose_reductase/IFD

>  <Rbt.Executable>
rbdock ($Id: //depot/dev/client3/rdock/2013.1/src/exe/rbdock.cxx#4 $)

>  <Rbt.Library>
libRbt.so (2013.1, Build901 2013/11/27)

>  <Rbt.Parameter_File>
/home/malgorzata/Desktop/rDock_2013.1_src/data/scripts/hard_docking.prm

>  <Rbt.Receptor>
cavity.prm

>  <SCORE>
-23.9767

>  <SCORE.INTER>
-6.90164

>  <SCORE.INTER.CONST>
1

>  <SCORE.INTER.POLAR>
-0.720731

>  <SCORE.INTER.REPUL>
0

>  <SCORE.INTER.ROT>
5

>  <SCORE.INTER.VDW>
-14.8512

>  <SCORE.INTER.norm>
-0.287568

>  <SCORE.INTRA>
-5.14614

>  <SCORE.INTRA.DIHEDRAL>
3.48758

>  <SCORE.INTRA.DIHEDRAL.0>
16.9783

>  <SCORE.INTRA.POLAR>
0

>  <SCORE.INTRA.POLAR.0>
0

>  <SCORE.INTRA.REPUL>
0

>  <SCORE.INTRA.REPUL.0>
0

>  <SCORE.INTRA.VDW>
-6.88993

>  <SCORE.INTRA.VDW.0>
4.87734

>  <SCORE.INTRA.norm>
-0.214422

>  <SCORE.RESTR>
0.630467

>  <SCORE.RESTR.CAVITY>
0.630467

>  <SCORE.RESTR.norm>
0.0262695

>  <SCORE.SYSTEM>
-12.5594

>  <SCORE.SYSTEM.CONST>
0

>  <SCORE.SYSTEM.DIHEDRAL>
9.03883

>  <SCORE.SYSTEM.POLAR>
-3.35096

>  <SCORE.SYSTEM.REPUL>
0.0382689

>  <SCORE.SYSTEM.VDW>
-5.87691

>  <SCORE.SYSTEM.norm>
-0.523309

>  <SCORE.heavy>
24

>  <SCORE.norm>
-0.999031

$$$$
TOL.pdb
  rDOCK(R)          3D
libRbt.so/2013.1/901 2013/11/27
 25 26  0  0  0  0  0  0  0  0999 V2000
   32.7216   26.3749   79.0688 C   0  0  0  0  0  0
   33.8361   25.6278   79.2702 F   0  0  0  0  0  0
   32.4531   27.0079   80.2416 F   0  0  0  0  0  0
   33.0173   27.3339   78.1513 F   0  0  0  0  0  0
   31.5354   25.5090   78.5921 C   0  0  0  0  0  0
   30.2973   25.4175   79.2795 C   0  0  0  0  0  0
   30.1168   26.1007   80.3954 O   0  0  0  0  0  0
   29.2609   27.2187   80.2269 C   0  0  0  0  0  0
   29.2763   24.5920   78.7595 C   0  0  0  0  0  0
   29.4724   23.8676   77.5783 C   0  0  0  0  0  0
   30.7011   23.9540   76.8943 C   0  0  0  0  0  0
   30.8873   23.2156   75.7022 C   0  0  0  0  0  0
   32.1120   23.3031   75.0202 C   0  0  0  0  0  0
   33.1398   24.1102   75.5131 C   0  0  0  0  0  0
   32.9505   24.8399   76.6934 C   0  0  0  0  0  0
   31.7328   24.7702   77.3954 C   0  0  0  0  0  0
   29.8317   22.3198   75.0981 C   0  0  0  0  0  0
   29.2064   21.0155   76.0167 S   0  0  0  0  0  0
   29.3891   22.5636   73.8635 N   0  0  0  0  0  0
   29.8593   23.7423   73.1442 C   0  0  0  0  0  0
   28.4228   21.6869   73.2096 C   0  0  0  0  0  0
   29.0868   20.4009   72.6883 C   0  0  0  0  0  0
   30.0642   20.4217   71.9874 O   0  0  0  0  0  0
   28.5068   19.2590   73.0742 O   0  0  0  0  0  0
   27.7507   19.2811   73.6272 H   0  0  0  0  0  0
  1  2  1  0  0  0
  1  3  1  0  0  0
  1  4  1  0  0  0
  1  5  1  0  0  0
  5  6  2  0  0  0
  5 16  1  0  0  0
  6  7  1  0  0  0
  6  9  1  0  0  0
  7  8  1  0  0  0
  9 10  2  0  0  0
 10 11  1  0  0  0
 11 12  2  0  0  0
 11 16  1  0  0  0
 12 13  1  0  0  0
 12 17  1  0  0  0
 13 14  2  0  0  0
 14 15  1  0  0  0
 15 16  2  0  0  0
 17 18  2  0  0  0
 17 19  1  0  0  0
 19 20  1  0  0  0
 19 21  1  0  0  0
 21 22  1  0  0  0
 22 23  2  0  0  0
 22 24  1  0  0  0
 24 25  1  0  0  0
M  END
>  <CHROM.0>
-117.26085131,-93.82139007,-12.03754138,-172.56684554,-118.63457570,-64.64431675
-82.16213247,-60.02374828,179.09807092,60.38467857,-61.54190337,-67.30637523
-61.41326028,-60.50081437,-99.02659228

>  <CHROM.1>
121.56822523,106.34859832,-58.78798069,-77.18679536,-52.02550498,-0.20414728
30.71719632,23.86636603,76.61477647,-1.22789662,-0.42679198,-2.16547201

>  <FORMUL>
      TOL    C16 H14 F3 N1 O3 S1

>  <HET>
 TOL  A 320      24

>  <HETNAM>
     TOL TOLRESTAT

>  <Name>
TOL.pdb

>  <RI>
0

>  <Rbt.Current_Directory>
/home/malgorzata/Desktop/rDOCK_IFD/Wyniki/1c_aldose_reductase/IFD

>  <Rbt.Executable>
rbdock ($Id: //depot/dev/client3/rdock/2013.1/src/exe/rbdock.cxx#4 $)

>  <Rbt.Library>
libRbt.so (2013.1, Build901 2013/11/27)

>  <Rbt.Parameter_File>
/home/malgorzata/Desktop/rDock_2013.1_src/data/scripts/hard_docking.prm

>  <Rbt.Receptor>
cavity.prm

>  <SCORE>
-22.2916

>  <SCORE.INTER>
-7.97665

>  <SCORE.INTER.CONST>
1

>  <SCORE.INTER.POLAR>
-1.40006

>  <SCORE.INTER.REPUL>
0

>  <SCORE.INTER.ROT>
5

>  <SCORE.INTER.VDW>
-13.6165

>  <SCORE.INTER.norm>
-0.33236

>  <SCORE.INTRA>
-5.33867

>  <SCORE.INTRA.DIHEDRAL>
1.28776

>  <SCORE.INTRA.DIHEDRAL.0>
16.9783

>  <SCORE.INTRA.POLAR>
0

>  <SCORE.INTRA.POLAR.0>
0

>  <SCORE.INTRA.REPUL>
0

>  <SCORE.INTRA.REPUL.0>
0

>  <SCORE.INTRA.VDW>
-5.98255

>  <SCORE.INTRA.VDW.0>
4.87734

>  <SCORE.INTRA.norm>
-0.222444

>  <SCORE.RESTR>
0.0502098

>  <SCORE.RESTR.CAVITY>
0.0502098

>  <SCORE.RESTR.norm>
0.00209207

>  <SCORE.SYSTEM>
-9.02654

>  <SCORE.SYSTEM.CONST>
0

>  <SCORE.SYSTEM.DIHEDRAL>
9.53916

>  <SCORE.SYSTEM.POLAR>
-2.66894

>  <SCORE.SYSTEM.REPUL>
0.224989

>  <SCORE.SYSTEM.VDW>
-5.84667

>  <SCORE.SYSTEM.norm>
-0.376106

>  <SCORE.heavy>
24

>  <SCORE.norm>
-0.928818

$$$$
TOL.pdb
  rDOCK(R)          3D
libRbt.so/2013.1/901 2013/11/27
 25 26  0  0  0  0  0  0  0  0999 V2000
   32.6415   24.3256   75.0446 C   0  0  0  0  0  0
   32.2024   25.5326   74.6075 F   0  0  0  0  0  0
   32.5661   23.4720   73.9892 F   0  0  0  0  0  0
   33.9557   24.4483   75.3711 F   0  0  0  0  0  0
   31.8216   23.8266   76.2542 C   0  0  0  0  0  0
   31.0447   22.6390   76.2464 C   0  0  0  0  0  0
   30.9993   21.8944   75.1565 O   0  0  0  0  0  0
   29.8165   22.0932   74.4000 C   0  0  0  0  0  0
   30.3277   22.2734   77.4068 C   0  0  0  0  0  0
   30.3763   23.0666   78.5587 C   0  0  0  0  0  0
   31.1445   24.2476   78.5695 C   0  0  0  0  0  0
   31.1842   25.0413   79.7397 C   0  0  0  0  0  0
   31.9511   26.2178   79.7501 C   0  0  0  0  0  0
   32.6685   26.6044   78.6158 C   0  0  0  0  0  0
   32.6267   25.8149   77.4598 C   0  0  0  0  0  0
   31.8665   24.6312   77.4235 C   0  0  0  0  0  0
   30.4410   24.6992   81.0096 C   0  0  0  0  0  0
   29.0276   25.5760   81.4215 S   0  0  0  0  0  0
   30.8855   23.7102   81.7865 N   0  0  0  0  0  0
   32.0279   22.9100   81.3593 C   0  0  0  0  0  0
   30.2445   23.3880   83.0575 C   0  0  0  0  0  0
   30.3451   24.5551   84.0545 C   0  0  0  0  0  0
   31.3920   25.0853   84.3188 O   0  0  0  0  0  0
   29.1878   24.9439   84.6011 O   0  0  0  0  0  0
   28.3915   24.5056   84.3734 H   0  0  0  0  0  0
  1  2  1  0  0  0
  1  3  1  0  0  0
  1  4  1  0  0  0
  1  5  1  0  0  0
  5  6  2  0  0  0
  5 16  1  0  0  0
  6  7  1  0  0  0
  6  9  1  0  0  0
  7  8  1  0  0  0
  9 10  2  0  0  0
 10 11  1  0  0  0
 11 12  2  0  0  0
 11 16  1  0  0  0
 12 13  1  0  0  0
 12 17  1  0  0  0
 13 14  2  0  0  0
 14 15  1  0  0  0
 15 16  2  0  0  0
 17 18  2  0  0  0
 17 19  1  0  0  0
 19 20  1  0  0  0
 19 21  1  0  0  0
 21 22  1  0  0  0
 22 23  2  0  0  0
 22 24  1  0  0  0
 24 25  1  0  0  0
M  END
>  <CHROM.0>
-90.49624326,-96.93561756,178.48021677,16.71811942,140.89043131,-159.85745586
-84.12764895,-60.02374828,62.62712854,166.46126381,-61.54190337,62.10016408
-61.41326028,-60.50081437,151.57724326

>  <CHROM.1>
117.83368420,-100.75042299,-105.20281332,-63.24197181,-51.93273399,0.53093264
31.20685189,24.26612465,78.79076419,-1.21514435,0.88763584,1.16561996

>  <FORMUL>
      TOL    C16 H14 F3 N1 O3 S1

>  <HET>
 TOL  A 320      24

>  <HETNAM>
     TOL TOLRESTAT

>  <Name>
TOL.pdb

>  <RI>
0

>  <Rbt.Current_Directory>
/home/malgorzata/Desktop/rDOCK_IFD/Wyniki/1c_aldose_reductase/IFD

>  <Rbt.Executable>
rbdock ($Id: //depot/dev/client3/rdock/2013.1/src/exe/rbdock.cxx#4 $)

>  <Rbt.Library>
libRbt.so (2013.1, Build901 2013/11/27)

>  <Rbt.Parameter_File>
/home/malgorzata/Desktop/rDock_2013.1_src/data/scripts/hard_docking.prm

>  <Rbt.Receptor>
cavity.prm

>  <SCORE>
-19.4421

>  <SCORE.INTER>
-3.15428

>  <SCORE.INTER.CONST>
1

>  <SCORE.INTER.POLAR>
-0.633641

>  <SCORE.INTER.REPUL>
0

>  <SCORE.INTER.ROT>
5

>  <SCORE.INTER.VDW>
-11.3999

>  <SCORE.INTER.norm>
-0.131429

>  <SCORE.INTRA>
-5.11541

>  <SCORE.INTRA.DIHEDRAL>
3.988

>  <SCORE.INTRA.DIHEDRAL.0>
16.9783

>  <SCORE.INTRA.POLAR>
0

>  <SCORE.INTRA.POLAR.0>
0

>  <SCORE.INTRA.REPUL>
0

>  <SCORE.INTRA.REPUL.0>
0

>  <SCORE.INTRA.VDW>
-7.10941

>  <SCORE.INTRA.VDW.0>
4.87734

>  <SCORE.INTRA.norm>
-0.213142

>  <SCORE.RESTR>
1.1453

>  <SCORE.RESTR.CAVITY>
1.1453

>  <SCORE.RESTR.norm>
0.0477206

>  <SCORE.SYSTEM>
-12.3177

>  <SCORE.SYSTEM.CONST>
0

>  <SCORE.SYSTEM.DIHEDRAL>
8.56879

>  <SCORE.SYSTEM.POLAR>
-3.30484

>  <SCORE.SYSTEM.REPUL>
0.134112

>  <SCORE.SYSTEM.VDW>
-6.03626

>  <SCORE.SYSTEM.norm>
-0.51324

>  <SCORE.heavy>
24

>  <SCORE.norm>
-0.810089

$$$$
TOL.pdb
  rDOCK(R)          3D
libRbt.so/2013.1/901 2013/11/27
 25 26  0  0  0  0  0  0  0  0999 V2000
   29.0106   25.7736   81.3303 C   0  0  0  0  0  0
   29.4318   24.7024   82.0485 F   0  0  0  0  0  0
   27.8590   26.2081   81.9075 F   0  0  0  0  0  0
   29.9315   26.7640   81.4717 F   0  0  0  0  0  0
   28.8146   25.4176   79.8406 C   0  0  0  0  0  0
   27.6207   25.6737   79.1174 C   0  0  0  0  0  0
   26.5989   26.2491   79.7250 O   0  0  0  0  0  0
   26.4132   27.5999   79.3352 C   0  0  0  0  0  0
   27.5432   25.3046   77.7566 C   0  0  0  0  0  0
   28.6273   24.6925   77.1173 C   0  0  0  0  0  0
   29.8134   24.4345   77.8325 C   0  0  0  0  0  0
   30.9014   23.8140   77.1752 C   0  0  0  0  0  0
   32.0839   23.5582   77.8885 C   0  0  0  0  0  0
   32.1873   23.9108   79.2360 C   0  0  0  0  0  0
   31.1075   24.5256   79.8823 C   0  0  0  0  0  0
   29.9119   24.7935   79.1902 C   0  0  0  0  0  0
   30.8770   23.4002   75.7226 C   0  0  0  0  0  0
   31.4514   24.4851   74.5271 S   0  0  0  0  0  0
   30.4227   22.1909   75.3900 N   0  0  0  0  0  0
   30.0401   21.2474   76.4347 C   0  0  0  0  0  0
   30.3129   21.7709   73.9966 C   0  0  0  0  0  0
   28.9285   22.1010   73.4128 C   0  0  0  0  0  0
   28.0079   21.3288   73.4675 O   0  0  0  0  0  0
   28.8176   23.3082   72.8473 O   0  0  0  0  0  0
   29.5510   23.8914   72.8401 H   0  0  0  0  0  0
  1  2  1  0  0  0
  1  3  1  0  0  0
  1  4  1  0  0  0
  1  5  1  0  0  0
  5  6  2  0  0  0
  5 16  1  0  0  0
  6  7  1  0  0  0
  6  9  1  0  0  0
  7  8  1  0  0  0
  9 10  2  0  0  0
 10 11  1  0  0  0
 11 12  2  0  0  0
 11 16  1  0  0  0
 12 13  1  0  0  0
 12 17  1  0  0  0
 13 14  2  0  0  0
 14 15  1  0  0  0
 15 16  2  0  0  0
 17 18  2  0  0  0
 17 19  1  0  0  0
 19 20  1  0  0  0
 19 21  1  0  0  0
 21 22  1  0  0  0
 22 23  2  0  0  0
 22 24  1  0  0  0
 24 25  1  0  0  0
M  END
>  <CHROM.0>
-91.74857235,-97.24959362,-179.44953506,-173.03829607,139.28190990,-64.35102120
-84.49668211,-60.02374828,62.75260493,166.38184220,-61.54190337,61.37528372
-61.41326028,-60.50081437,-97.67804295

>  <CHROM.1>
127.33483137,106.63305557,92.48854835,-90.97147565,-90.17318928,-1.03341731
29.48438643,24.35937373,77.71165811,-1.75886287,0.35549564,-1.97120100

>  <FORMUL>
      TOL    C16 H14 F3 N1 O3 S1

>  <HET>
 TOL  A 320      24

>  <HETNAM>
     TOL TOLRESTAT

>  <Name>
TOL.pdb

>  <RI>
0

>  <Rbt.Current_Directory>
/home/malgorzata/Desktop/rDOCK_IFD/Wyniki/1c_aldose_reductase/IFD

>  <Rbt.Executable>
rbdock ($Id: //depot/dev/client3/rdock/2013.1/src/exe/rbdock.cxx#4 $)

>  <Rbt.Library>
libRbt.so (2013.1, Build901 2013/11/27)

>  <Rbt.Parameter_File>
/home/malgorzata/Desktop/rDock_2013.1_src/data/scripts/hard_docking.prm

>  <Rbt.Receptor>
cavity.prm

>  <SCORE>
-28.2436

>  <SCORE.INTER>
-5.90713

>  <SCORE.INTER.CONST>
1

>  <SCORE.INTER.POLAR>
0

>  <SCORE.INTER.REPUL>
0.0168724

>  <SCORE.INTER.ROT>
5

>  <SCORE.INTER.VDW>
-16.3915

>  <SCORE.INTER.norm>
-0.246131

>  <SCORE.INTRA>
-5.78283

>  <SCORE.INTRA.DIHEDRAL>
4.61489

>  <SCORE.INTRA.DIHEDRAL.0>
16.9783

>  <SCORE.INTRA.POLAR>
-0.237771

>  <SCORE.INTRA.POLAR.0>
0

>  <SCORE.INTRA.REPUL>
0

>  <SCORE.INTRA.REPUL.0>
0

>  <SCORE.INTRA.VDW>
-7.28185

>  <SCORE.INTRA.VDW.0>
4.87734

>  <SCORE.INTRA.norm>
-0.240951

>  <SCORE.RESTR>
0

>  <SCORE.RESTR.CAVITY>
0

>  <SCORE.RESTR.norm>
0

>  <SCORE.SYSTEM>
-16.5537

>  <SCORE.SYSTEM.CONST>
0

>  <SCORE.SYSTEM.DIHEDRAL>
6.73447

>  <SCORE.SYSTEM.POLAR>
-4.02824

>  <SCORE.SYSTEM.VDW>
-6.22488

>  <SCORE.SYSTEM.norm>
-0.689737

>  <SCORE.heavy>
24

>  <SCORE.norm>
-1.17682

$$$$
TOL.pdb
  rDOCK(R)          3D
libRbt.so/2013.1/901 2013/11/27
 25 26  0  0  0  0  0  0  0  0999 V2000
   28.8364   26.0352   81.0992 C   0  0  0  0  0  0
   29.8756   26.8674   81.3608 F   0  0  0  0  0  0
   29.0332   24.9125   81.8401 F   0  0  0  0  0  0
   27.6993   26.6252   81.5548 F   0  0  0  0  0  0
   28.7242   25.7230   79.5912 C   0  0  0  0  0  0
   27.6896   26.2195   78.7562 C   0  0  0  0  0  0
   26.7527   26.9970   79.2681 O   0  0  0  0  0  0
   25.4692   26.3941   79.2612 C   0  0  0  0  0  0
   27.6768   25.8702   77.3880 C   0  0  0  0  0  0
   28.6700   25.0439   76.8501 C   0  0  0  0  0  0
   29.6973   24.5470   77.6763 C   0  0  0  0  0  0
   30.6944   23.7116   77.1207 C   0  0  0  0  0  0
   31.7190   23.2175   77.9447 C   0  0  0  0  0  0
   31.7548   23.5453   79.3019 C   0  0  0  0  0  0
   30.7658   24.3734   79.8473 C   0  0  0  0  0  0
   29.7288   24.8820   79.0433 C   0  0  0  0  0  0
   30.7334   23.3071   75.6658 C   0  0  0  0  0  0
   31.2984   24.4237   74.4953 S   0  0  0  0  0  0
   30.3416   22.0820   75.3122 N   0  0  0  0  0  0
   29.9669   21.1160   76.3389 C   0  0  0  0  0  0
   30.2937   21.6674   73.9137 C   0  0  0  0  0  0
   28.9178   21.9491   73.2862 C   0  0  0  0  0  0
   28.0378   21.1290   73.2735 O   0  0  0  0  0  0
   28.7654   23.1706   72.7626 O   0  0  0  0  0  0
   29.4668   23.7903   72.8073 H   0  0  0  0  0  0
  1  2  1  0  0  0
  1  3  1  0  0  0
  1  4  1  0  0  0
  1  5  1  0  0  0
  5  6  2  0  0  0
  5 16  1  0  0  0
  6  7  1  0  0  0
  6  9  1  0  0  0
  7  8  1  0  0  0
  9 10  2  0  0  0
 10 11  1  0  0  0
 11 12  2  0  0  0
 11 16  1  0  0  0
 12 13  1  0  0  0
 12 17  1  0  0  0
 13 14  2  0  0  0
 14 15  1  0  0  0
 15 16  2  0  0  0
 17 18  2  0  0  0
 17 19  1  0  0  0
 19 20  1  0  0  0
 19 21  1  0  0  0
 21 22  1  0  0  0
 22 23  2  0  0  0
 22 24  1  0  0  0
 24 25  1  0  0  0
M  END
>  <CHROM.0>
-91.40553054,-108.64239792,179.72090328,16.46028115,140.14178130,-62.73316206
-84.66704159,-60.02374828,64.02139907,166.09116834,-61.54190337,62.34537223
-61.41326028,-60.50081437,-100.50528670

>  <CHROM.1>
-109.06860871,-113.65032798,77.48731803,-90.68828228,-92.27477133,-0.99115845
29.33307122,24.38082652,77.56014413,-1.78363402,0.43615667,-1.99367760

>  <FORMUL>
      TOL    C16 H14 F3 N1 O3 S1

>  <HET>
 TOL  A 320      24

>  <HETNAM>
     TOL TOLRESTAT

>  <Name>
TOL.pdb

>  <RI>
0

>  <Rbt.Current_Directory>
/home/malgorzata/Desktop/rDOCK_IFD/Wyniki/1c_aldose_reductase/IFD

>  <Rbt.Executable>
rbdock ($Id: //depot/dev/client3/rdock/2013.1/src/exe/rbdock.cxx#4 $)

>  <Rbt.Library>
libRbt.so (2013.1, Build901 2013/11/27)

>  <Rbt.Parameter_File>
/home/malgorzata/Desktop/rDock_2013.1_src/data/scripts/hard_docking.prm

>  <Rbt.Receptor>
cavity.prm

>  <SCORE>
-27.169

>  <SCORE.INTER>
-5.75661

>  <SCORE.INTER.CONST>
1

>  <SCORE.INTER.POLAR>
0

>  <SCORE.INTER.REPUL>
0

>  <SCORE.INTER.ROT>
5

>  <SCORE.INTER.VDW>
-16.1566

>  <SCORE.INTER.norm>
-0.239859

>  <SCORE.INTRA>
-5.24252

>  <SCORE.INTRA.DIHEDRAL>
3.61242

>  <SCORE.INTRA.DIHEDRAL.0>
16.9783

>  <SCORE.INTRA.POLAR>
-0.239309

>  <SCORE.INTRA.POLAR.0>
0

>  <SCORE.INTRA.REPUL>
0

>  <SCORE.INTRA.REPUL.0>
0

>  <SCORE.INTRA.VDW>
-6.23508

>  <SCORE.INTRA.VDW.0>
4.87734

>  <SCORE.INTRA.norm>
-0.218438

>  <SCORE.RESTR>
0

>  <SCORE.RESTR.CAVITY>
0

>  <SCORE.RESTR.norm>
0

>  <SCORE.SYSTEM>
-16.1699

>  <SCORE.SYSTEM.CONST>
0

>  <SCORE.SYSTEM.DIHEDRAL>
7.02897

>  <SCORE.SYSTEM.POLAR>
-4.01703

>  <SCORE.SYSTEM.REPUL>
0.0739037

>  <SCORE.SYSTEM.VDW>
-6.396

>  <SCORE.SYSTEM.norm>
-0.673746

>  <SCORE.heavy>
24

>  <SCORE.norm>
-1.13204

$$$$
TOL.pdb
  rDOCK(R)          3D
libRbt.so/2013.1/901 2013/11/27
 25 26  0  0  0  0  0  0  0  0999 V2000
   31.8713   28.5138   80.7024 C   0  0  0  0  0  0
   32.9429   29.2953   80.9884 F   0  0  0  0  0  0
   31.5128   27.8962   81.8592 F   0  0  0  0  0  0
   30.8417   29.3258   80.3426 F   0  0  0  0  0  0
   32.1888   27.5029   79.5792 C   0  0  0  0  0  0
   33.4372   27.4339   78.9079 C   0  0  0  0  0  0
   34.4051   28.2690   79.2397 O   0  0  0  0  0  0
   35.5590   27.6096   79.7343 C   0  0  0  0  0  0
   33.6236   26.4726   77.8903 C   0  0  0  0  0  0
   32.5945   25.5914   77.5399 C   0  0  0  0  0  0
   31.3529   25.6584   78.2024 C   0  0  0  0  0  0
   30.3203   24.7629   77.8378 C   0  0  0  0  0  0
   29.0832   24.8296   78.4995 C   0  0  0  0  0  0
   28.8707   25.7719   79.5083 C   0  0  0  0  0  0
   29.8964   26.6559   79.8662 C   0  0  0  0  0  0
   31.1452   26.6095   79.2193 C   0  0  0  0  0  0
   30.4629   23.7137   76.7605 C   0  0  0  0  0  0
   30.1497   24.1327   75.1288 S   0  0  0  0  0  0
   30.8447   22.4789   77.0905 N   0  0  0  0  0  0
   31.2083   22.1767   78.4705 C   0  0  0  0  0  0
   30.9289   21.4125   76.0976 C   0  0  0  0  0  0
   29.5351   20.9820   75.6092 C   0  0  0  0  0  0
   29.1884   21.1090   74.4644 O   0  0  0  0  0  0
   28.7390   20.4503   76.5435 O   0  0  0  0  0  0
   27.8883   20.1347   76.3097 H   0  0  0  0  0  0
  1  2  1  0  0  0
  1  3  1  0  0  0
  1  4  1  0  0  0
  1  5  1  0  0  0
  5  6  2  0  0  0
  5 16  1  0  0  0
  6  7  1  0  0  0
  6  9  1  0  0  0
  7  8  1  0  0  0
  9 10  2  0  0  0
 10 11  1  0  0  0
 11 12  2  0  0  0
 11 16  1  0  0  0
 12 13  1  0  0  0
 12 17  1  0  0  0
 13 14  2  0  0  0
 14 15  1  0  0  0
 15 16  2  0  0  0
 17 18  2  0  0  0
 17 19  1  0  0  0
 19 20  1  0  0  0
 19 21  1  0  0  0
 21 22  1  0  0  0
 22 23  2  0  0  0
 22 24  1  0  0  0
 24 25  1  0  0  0
M  END
>  <CHROM.0>
-90.22293516,-95.85712166,-179.62532759,-174.75275188,140.49066611,-159.68104516
-85.24913422,-60.02374828,179.93017075,167.50497298,-61.54190337,-172.30444705
-61.41326028,-60.50081437,111.01487153

>  <CHROM.1>
-1.74111320,118.38554488,-86.13629293,-69.90740371,117.01838036,-177.57357981
31.24270529,25.37202965,78.25578303,1.19436616,0.30116701,0.71243316

>  <FORMUL>
      TOL    C16 H14 F3 N1 O3 S1

>  <HET>
 TOL  A 320      24

>  <HETNAM>
     TOL TOLRESTAT

>  <Name>
TOL.pdb

>  <RI>
0

>  <Rbt.Current_Directory>
/home/malgorzata/Desktop/rDOCK_IFD/Wyniki/1c_aldose_reductase/IFD

>  <Rbt.Executable>
rbdock ($Id: //depot/dev/client3/rdock/2013.1/src/exe/rbdock.cxx#4 $)

>  <Rbt.Library>
libRbt.so (2013.1, Build901 2013/11/27)

>  <Rbt.Parameter_File>
/home/malgorzata/Desktop/rDock_2013.1_src/data/scripts/hard_docking.prm

>  <Rbt.Receptor>
cavity.prm

>  <SCORE>
-27.3041

>  <SCORE.INTER>
-11.6985

>  <SCORE.INTER.CONST>
1

>  <SCORE.INTER.POLAR>
-1.49282

>  <SCORE.INTER.REPUL>
0

>  <SCORE.INTER.ROT>
5

>  <SCORE.INTER.VDW>
-17.023

>  <SCORE.INTER.norm>
-0.487439

>  <SCORE.INTRA>
-4.98199

>  <SCORE.INTRA.DIHEDRAL>
3.96073

>  <SCORE.INTRA.DIHEDRAL.0>
16.9783

>  <SCORE.INTRA.POLAR>
0

>  <SCORE.INTRA.POLAR.0>
0

>  <SCORE.INTRA.REPUL>
0

>  <SCORE.INTRA.REPUL.0>
0

>  <SCORE.INTRA.VDW>
-6.96235

>  <SCORE.INTRA.VDW.0>
4.87734

>  <SCORE.INTRA.norm>
-0.207583

>  <SCORE.RESTR>
1.4895

>  <SCORE.RESTR.CAVITY>
1.4895

>  <SCORE.RESTR.norm>
0.0620627

>  <SCORE.SYSTEM>
-12.113

>  <SCORE.SYSTEM.CONST>
0

>  <SCORE.SYSTEM.DIHEDRAL>
8.29153

>  <SCORE.SYSTEM.POLAR>
-3.28456

>  <SCORE.SYSTEM.REPUL>
0.0578291

>  <SCORE.SYSTEM.VDW>
-5.38044

>  <SCORE.SYSTEM.norm>
-0.50471

>  <SCORE.heavy>
24

>  <SCORE.norm>
-1.13767

$$$$
TOL.pdb
  rDOCK(R)          3D
libRbt.so/2013.1/901 2013/11/27
 25 26  0  0  0  0  0  0  0  0999 V2000
   29.3604   26.0642   81.3491 C   0  0  0  0  0  0
   28.6609   27.1743   81.6943 F   0  0  0  0  0  0
   30.6752   26.3488   81.5454 F   0  0  0  0  0  0
   29.0289   25.0707   82.2161 F   0  0  0  0  0  0
   29.0699   25.6392   79.8933 C   0  0  0  0  0  0
   28.1512   26.3081   79.0433 C   0  0  0  0  0  0
   27.4901   27.3592   79.4932 O   0  0  0  0  0  0
   26.1719   27.0457   79.9117 C   0  0  0  0  0  0
   27.9558   25.8353   77.7270 C   0  0  0  0  0  0
   28.6563   24.7195   77.2550 C   0  0  0  0  0  0
   29.5673   24.0513   78.0968 C   0  0  0  0  0  0
   30.2680   22.9239   77.6081 C   0  0  0  0  0  0
   31.1770   22.2589   78.4474 C   0  0  0  0  0  0
   31.3882   22.7038   79.7544 C   0  0  0  0  0  0
   30.6926   23.8209   80.2334 C   0  0  0  0  0  0
   29.7769   24.5053   79.4127 C   0  0  0  0  0  0
   30.1020   22.3753   76.2105 C   0  0  0  0  0  0
   29.1098   21.0016   75.9564 S   0  0  0  0  0  0
   30.7174   22.9751   75.1903 N   0  0  0  0  0  0
   31.4686   24.2045   75.4181 C   0  0  0  0  0  0
   30.6457   22.4429   73.8332 C   0  0  0  0  0  0
   29.2574   22.6667   73.2096 C   0  0  0  0  0  0
   28.4808   21.7655   73.0315 O   0  0  0  0  0  0
   28.9712   23.9327   72.8863 O   0  0  0  0  0  0
   28.1526   24.1388   72.4797 H   0  0  0  0  0  0
  1  2  1  0  0  0
  1  3  1  0  0  0
  1  4  1  0  0  0
  1  5  1  0  0  0
  5  6  2  0  0  0
  5 16  1  0  0  0
  6  7  1  0  0  0
  6  9  1  0  0  0
  7  8  1  0  0  0
  9 10  2  0  0  0
 10 11  1  0  0  0
 11 12  2  0  0  0
 11 16  1  0  0  0
 12 13  1  0  0  0
 12 17  1  0  0  0
 13 14  2  0  0  0
 14 15  1  0  0  0
 15 16  2  0  0  0
 17 18  2  0  0  0
 17 19  1  0  0  0
 19 20  1  0  0  0
 19 21  1  0  0  0
 21 22  1  0  0  0
 22 23  2  0  0  0
 22 24  1  0  0  0
 24 25  1  0  0  0
M  END
>  <CHROM.0>
-90.33194079,-98.49487268,-178.88259966,-173.66637646,140.38152333,-64.72422001
-85.72074573,-60.02374828,62.98142877,166.73029213,-61.54190337,-70.54869711
-61.41326028,-60.50081437,-159.96311919

>  <CHROM.1>
-1.86532374,-99.18630506,-100.37747399,72.79858473,-108.23565791,178.25829139
29.40152839,24.22580300,77.87583981,-1.71373835,0.82328339,-1.98997541

>  <FORMUL>
      TOL    C16 H14 F3 N1 O3 S1

>  <HET>
 TOL  A 320      24

>  <HETNAM>
     TOL TOLRESTAT

>  <Name>
TOL.pdb

>  <RI>
0

>  <Rbt.Current_Directory>
/home/malgorzata/Desktop/rDOCK_IFD/Wyniki/1c_aldose_reductase/IFD

>  <Rbt.Executable>
rbdock ($Id: //depot/dev/client3/rdock/2013.1/src/exe/rbdock.cxx#4 $)

>  <Rbt.Library>
libRbt.so (2013.1, Build901 2013/11/27)

>  <Rbt.Parameter_File>
/home/malgorzata/Desktop/rDock_2013.1_src/data/scripts/hard_docking.prm

>  <Rbt.Receptor>
cavity.prm

>  <SCORE>
-30.5184

>  <SCORE.INTER>
-8.88685

>  <SCORE.INTER.CONST>
1

>  <SCORE.INTER.POLAR>
-0.165215

>  <SCORE.INTER.REPUL>
0.00446146

>  <SCORE.INTER.ROT>
5

>  <SCORE.INTER.VDW>
-18.7474

>  <SCORE.INTER.norm>
-0.370285

>  <SCORE.INTRA>
-5.34084

>  <SCORE.INTRA.DIHEDRAL>
4.56918

>  <SCORE.INTRA.DIHEDRAL.0>
16.9783

>  <SCORE.INTRA.POLAR>
0

>  <SCORE.INTRA.POLAR.0>
0

>  <SCORE.INTRA.REPUL>
0

>  <SCORE.INTRA.REPUL.0>
0

>  <SCORE.INTRA.VDW>
-7.62543

>  <SCORE.INTRA.VDW.0>
4.87734

>  <SCORE.INTRA.norm>
-0.222535

>  <SCORE.RESTR>
0.00268339

>  <SCORE.RESTR.CAVITY>
0.00268339

>  <SCORE.RESTR.norm>
0.000111808

>  <SCORE.SYSTEM>
-16.2934

>  <SCORE.SYSTEM.CONST>
0

>  <SCORE.SYSTEM.DIHEDRAL>
6.97325

>  <SCORE.SYSTEM.POLAR>
-3.99222

>  <SCORE.SYSTEM.VDW>
-6.20646

>  <SCORE.SYSTEM.norm>
-0.678891

>  <SCORE.heavy>
24

>  <SCORE.norm>
-1.2716

$$$$
TOL.pdb
  rDOCK(R)          3D
libRbt.so/2013.1/901 2013/11/27
 25 26  0  0  0  0  0  0  0  0999 V2000
   31.1063   27.8842   80.9442 C   0  0  0  0  0  0
   32.2854   27.5189   81.5071 F   0  0  0  0  0  0
   30.2778   28.2433   81.9605 F   0  0  0  0  0  0
   31.3253   28.9947   80.1907 F   0  0  0  0  0  0
   30.5110   26.7483   80.0842 C   0  0  0  0  0  0
   29.2275   26.1829   80.3006 C   0  0  0  0  0  0
   28.4728   26.6324   81.2869 O   0  0  0  0  0  0
   27.2869   27.2634   80.8324 C   0  0  0  0  0  0
   28.7781   25.1432   79.4572 C   0  0  0  0  0  0
   29.5819   24.6680   78.4149 C   0  0  0  0  0  0
   30.8578   25.2251   78.1985 C   0  0  0  0  0  0
   31.6611   24.7348   77.1424 C   0  0  0  0  0  0
   32.9324   25.2915   76.9264 C   0  0  0  0  0  0
   33.4029   26.3194   77.7467 C   0  0  0  0  0  0
   32.6035   26.8019   78.7905 C   0  0  0  0  0  0
   31.3259   26.2619   79.0277 C   0  0  0  0  0  0
   31.2325   23.6281   76.2079 C   0  0  0  0  0  0
   30.7410   24.0147   74.6126 S   0  0  0  0  0  0
   31.2559   22.3632   76.6310 N   0  0  0  0  0  0
   31.7797   22.0513   77.9562 C   0  0  0  0  0  0
   30.7853   21.2663   75.7912 C   0  0  0  0  0  0
   29.6365   20.4928   76.4608 C   0  0  0  0  0  0
   29.7935   19.4037   76.9469 O   0  0  0  0  0  0
   28.4539   21.1178   76.4717 O   0  0  0  0  0  0
   28.3596   21.9493   76.0500 H   0  0  0  0  0  0
  1  2  1  0  0  0
  1  3  1  0  0  0
  1  4  1  0  0  0
  1  5  1  0  0  0
  5  6  2  0  0  0
  5 16  1  0  0  0
  6  7  1  0  0  0
  6  9  1  0  0  0
  7  8  1  0  0  0
  9 10  2  0  0  0
 10 11  1  0  0  0
 11 12  2  0  0  0
 11 16  1  0  0  0
 12 13  1  0  0  0
 12 17  1  0  0  0
 13 14  2  0  0  0
 14 15  1  0  0  0
 15 16  2  0  0  0
 17 18  2  0  0  0
 17 19  1  0  0  0
 19 20  1  0  0  0
 19 21  1  0  0  0
 21 22  1  0  0  0
 22 23  2  0  0  0
 22 24  1  0  0  0
 24 25  1  0  0  0
M  END
>  <CHROM.0>
-90.33861874,91.07015676,178.50181380,-174.50800972,0.54360054,-64.29793401
-79.61896896,-60.02374828,63.00754100,167.06636255,-61.54190337,-172.18144676
-61.41326028,-60.50081437,114.29176690

>  <CHROM.1>
122.11229763,114.92381762,104.47354558,-121.07920576,-105.44088949,3.05768791
30.61525867,24.94804778,78.40803984,-1.54657868,-0.56410694,-2.45784090

>  <FORMUL>
      TOL    C16 H14 F3 N1 O3 S1

>  <HET>
 TOL  A 320      24

>  <HETNAM>
     TOL TOLRESTAT

>  <Name>
TOL.pdb

>  <RI>
0

>  <Rbt.Current_Directory>
/home/malgorzata/Desktop/rDOCK_IFD/Wyniki/1c_aldose_reductase/IFD

>  <Rbt.Executable>
rbdock ($Id: //depot/dev/client3/rdock/2013.1/src/exe/rbdock.cxx#4 $)

>  <Rbt.Library>
libRbt.so (2013.1, Build901 2013/11/27)

>  <Rbt.Parameter_File>
/home/malgorzata/Desktop/rDock_2013.1_src/data/scripts/hard_docking.prm

>  <Rbt.Receptor>
cavity.prm

>  <SCORE>
-28.3469

>  <SCORE.INTER>
-9.85483

>  <SCORE.INTER.CONST>
1

>  <SCORE.INTER.POLAR>
-1.51744

>  <SCORE.INTER.REPUL>
0

>  <SCORE.INTER.ROT>
5

>  <SCORE.INTER.VDW>
-15.0955

>  <SCORE.INTER.norm>
-0.410618

>  <SCORE.INTRA>
-4.60715

>  <SCORE.INTRA.DIHEDRAL>
3.51911

>  <SCORE.INTRA.DIHEDRAL.0>
16.9783

>  <SCORE.INTRA.POLAR>
0

>  <SCORE.INTRA.POLAR.0>
0

>  <SCORE.INTRA.REPUL>
0

>  <SCORE.INTRA.REPUL.0>
0

>  <SCORE.INTRA.VDW>
-6.36671

>  <SCORE.INTRA.VDW.0>
4.87734

>  <SCORE.INTRA.norm>
-0.191965

>  <SCORE.RESTR>
0

>  <SCORE.RESTR.CAVITY>
0

>  <SCORE.RESTR.norm>
0

>  <SCORE.SYSTEM>
-13.885

>  <SCORE.SYSTEM.CONST>
0

>  <SCORE.SYSTEM.DIHEDRAL>
6.61523

>  <SCORE.SYSTEM.POLAR>
-3.8211

>  <SCORE.SYSTEM.REPUL>
0.0694257

>  <SCORE.SYSTEM.VDW>
-4.54798

>  <SCORE.SYSTEM.norm>
-0.57854

>  <SCORE.heavy>
24

>  <SCORE.norm>
-1.18112

$$$$
