SIA.pdb
  rDOCK(R)          3D
libRbt.so/2013.1/901 2013/11/27
 28 28  0  0  0  0  0  0  0  0999 V2000
   -6.4643   56.6013   -7.9302 C   0  0  0  0  0  0
   -5.0022   56.1560   -7.8448 C   0  0  0  0  0  0
   -4.3045   55.1214   -8.7187 C   0  0  0  0  0  0
   -2.7985   55.3234   -8.7858 C   0  0  0  0  0  0
   -2.2595   56.0742   -7.5711 C   0  0  0  0  0  0
   -2.9017   57.4645   -7.5293 C   0  0  0  0  0  0
   -2.5005   58.2367   -6.2586 C   0  0  0  0  0  0
   -1.9510   59.6295   -6.5731 C   0  0  0  0  0  0
   -2.9040   60.5674   -7.3544 C   0  0  0  0  0  0
    0.1851   56.0028   -6.9683 C   0  0  0  0  0  0
    1.5750   56.1286   -7.5695 C   0  0  0  0  0  0
   -0.8282   56.1644   -7.7965 N   0  0  0  0  0  0
   -7.0274   56.1366   -8.9387 O   0  0  0  0  0  0
   -7.1478   57.4015   -7.2650 O   0  0  0  0  0  0
   -5.1515   55.9841   -6.4335 O   0  0  0  0  0  0
   -2.2098   54.0439   -8.7954 O   0  0  0  0  0  0
   -4.3397   57.3678   -7.4632 O   0  0  0  0  0  0
   -3.6098   58.4358   -5.3969 O   0  0  0  0  0  0
   -1.7530   60.2207   -5.3086 O   0  0  0  0  0  0
   -2.5745   60.5939   -8.7346 O   0  0  0  0  0  0
   -0.0276   55.7942   -5.7727 O   0  0  0  0  0  0
   -0.6722   56.3145   -8.7604 H   0  0  0  0  0  0
   -4.4243   55.3727   -6.2072 H   0  0  0  0  0  0
   -1.4932   54.0716   -9.4604 H   0  0  0  0  0  0
   -3.5703   57.4701   -5.2228 H   0  0  0  0  0  0
   -0.8660   59.9311   -5.0544 H   0  0  0  0  0  0
   -3.3194   61.1334   -9.0641 H   0  0  0  0  0  0
   -7.9488   57.7381   -7.6159 H   0  0  0  0  0  0
  1 13  2  0  0  0
  1 14  1  0  0  0
  2  1  1  0  0  0
  2  3  1  0  0  0
  2 15  1  0  0  0
  2 17  1  0  0  0
  3  4  1  0  0  0
  4  5  1  0  0  0
  4 16  1  0  0  0
  5  6  1  0  0  0
  5 12  1  0  0  0
  6  7  1  0  0  0
  6 17  1  0  0  0
  7  8  1  0  0  0
  7 18  1  0  0  0
  8  9  1  0  0  0
  8 19  1  0  0  0
  9 20  1  0  0  0
 10 11  1  0  0  0
 10 12  1  0  0  0
 10 21  2  0  0  0
 12 22  1  0  0  0
 14 28  1  0  0  0
 15 23  1  0  0  0
 16 24  1  0  0  0
 18 25  1  0  0  0
 19 26  1  0  0  0
 20 27  1  0  0  0
M  END
>  <CHROM.0>
-59.78210859,115.78083649,160.56516379,122.90427316,-4.42724128,96.74689431
-38.69866657,-174.88544642,-98.85266540,99.52785490

>  <CHROM.1>
161.51870928,-8.59765003,158.84756521,137.50503855,-137.99237588,128.04595791
58.28251970,70.25088465,-99.89111048,86.55665343,173.88566267,-3.07179716
57.14612761,-7.36292175,-2.98562215,-0.13427397,0.30424466

>  <FORMUL>
      SIA    C11 H19 N1 O9

>  <HET>
 SIA  A 467      39

>  <HETNAM>
     SIA O-SIALIC ACID

>  <Name>
SIA.pdb

>  <RI>
0

>  <Rbt.Current_Directory>
/home/malgorzata/Desktop/rDOCK_IFD/Wyniki/12_neuraminidase

>  <Rbt.Executable>
rbdock ($Id: //depot/dev/client3/rdock/2013.1/src/exe/rbdock.cxx#4 $)

>  <Rbt.Library>
libRbt.so (2013.1, Build901 2013/11/27)

>  <Rbt.Parameter_File>
/home/malgorzata/Desktop/rDock_2013.1_src/data/scripts/soft_docking.prm

>  <Rbt.Receptor>
cavity.prm

>  <SCORE>
-55.3295

>  <SCORE.INTER>
-33.0671

>  <SCORE.INTER.CONST>
1

>  <SCORE.INTER.POLAR>
-7.47672

>  <SCORE.INTER.REPUL>
0.0410172

>  <SCORE.INTER.ROT>
5

>  <SCORE.INTER.VDW>
-18.2513

>  <SCORE.INTER.norm>
-1.57462

>  <SCORE.INTRA>
-5.19077

>  <SCORE.INTRA.DIHEDRAL>
1.39272

>  <SCORE.INTRA.DIHEDRAL.0>
24.6845

>  <SCORE.INTRA.POLAR>
0.967721

>  <SCORE.INTRA.POLAR.0>
-0.967721

>  <SCORE.INTRA.REPUL>
0

>  <SCORE.INTRA.REPUL.0>
0

>  <SCORE.INTRA.VDW>
-8.75956

>  <SCORE.INTRA.VDW.0>
7.44847

>  <SCORE.INTRA.norm>
-0.247179

>  <SCORE.RESTR>
1.43903

>  <SCORE.RESTR.CAVITY>
0.287806

>  <SCORE.RESTR.norm>
0.0685253

>  <SCORE.SYSTEM>
-18.5106

>  <SCORE.SYSTEM.CONST>
0

>  <SCORE.SYSTEM.DIHEDRAL>
15.8386

>  <SCORE.SYSTEM.POLAR>
-7.05626

>  <SCORE.SYSTEM.REPUL>
0.551029

>  <SCORE.SYSTEM.VDW>
-5.19382

>  <SCORE.SYSTEM.norm>
-0.881459

>  <SCORE.heavy>
21

>  <SCORE.norm>
-2.63474

$$$$
SIA.pdb
  rDOCK(R)          3D
libRbt.so/2013.1/901 2013/11/27
 28 28  0  0  0  0  0  0  0  0999 V2000
   -1.5422   57.4348   -5.0954 C   0  0  0  0  0  0
   -2.4067   58.3690   -5.9459 C   0  0  0  0  0  0
   -1.9408   59.5836   -6.7386 C   0  0  0  0  0  0
   -2.8697   59.9280   -7.8927 C   0  0  0  0  0  0
   -4.2898   59.4167   -7.6664 C   0  0  0  0  0  0
   -4.2495   57.8890   -7.5576 C   0  0  0  0  0  0
   -5.6314   57.3088   -7.2033 C   0  0  0  0  0  0
   -6.6659   57.5562   -8.3029 C   0  0  0  0  0  0
   -6.8929   56.3834   -9.2884 C   0  0  0  0  0  0
   -4.7270   59.7524  -10.1242 C   0  0  0  0  0  0
   -5.7738   60.2647  -11.0994 C   0  0  0  0  0  0
   -5.0276   59.8391   -8.8432 N   0  0  0  0  0  0
   -0.3523   57.4509   -5.4612 O   0  0  0  0  0  0
   -1.8106   56.6056   -4.2063 O   0  0  0  0  0  0
   -3.3323   58.4767   -4.8618 O   0  0  0  0  0  0
   -2.9270   61.3331   -7.9721 O   0  0  0  0  0  0
   -3.3866   57.4702   -6.4798 O   0  0  0  0  0  0
   -5.5764   55.9027   -7.0229 O   0  0  0  0  0  0
   -7.8788   57.7371   -7.6074 O   0  0  0  0  0  0
   -7.6850   55.3658   -8.6957 O   0  0  0  0  0  0
   -3.6323   59.3033  -10.4680 O   0  0  0  0  0  0
   -5.9085   60.1806   -8.5543 H   0  0  0  0  0  0
   -4.0018   59.1000   -5.2040 H   0  0  0  0  0  0
   -3.2597   61.6479   -7.1080 H   0  0  0  0  0  0
   -4.8343   56.0726   -6.4024 H   0  0  0  0  0  0
   -8.5173   57.9401   -8.3049 H   0  0  0  0  0  0
   -7.4385   55.4993   -7.7598 H   0  0  0  0  0  0
   -2.6020   56.6889   -3.7114 H   0  0  0  0  0  0
  1 13  2  0  0  0
  1 14  1  0  0  0
  2  1  1  0  0  0
  2  3  1  0  0  0
  2 15  1  0  0  0
  2 17  1  0  0  0
  3  4  1  0  0  0
  4  5  1  0  0  0
  4 16  1  0  0  0
  5  6  1  0  0  0
  5 12  1  0  0  0
  6  7  1  0  0  0
  6 17  1  0  0  0
  7  8  1  0  0  0
  7 18  1  0  0  0
  8  9  1  0  0  0
  8 19  1  0  0  0
  9 20  1  0  0  0
 10 11  1  0  0  0
 10 12  1  0  0  0
 10 21  2  0  0  0
 12 22  1  0  0  0
 14 28  1  0  0  0
 15 23  1  0  0  0
 16 24  1  0  0  0
 18 25  1  0  0  0
 19 26  1  0  0  0
 20 27  1  0  0  0
M  END
>  <CHROM.0>
-90.65487819,-174.13656403,-52.78784969,-155.47954918,-106.01676810,-95.94303051
156.58713209,147.20552599,137.36802141,69.15746379

>  <CHROM.1>
-24.11820686,-23.94973559,178.03902424,-58.88568292,46.90098386,64.49447463
97.26121396,51.71141901,76.62019431,177.04278752,-28.69494497,-4.25549252
58.22255535,-7.51561874,0.41012308,0.53902050,2.38933972

>  <FORMUL>
      SIA    C11 H19 N1 O9

>  <HET>
 SIA  A 467      39

>  <HETNAM>
     SIA O-SIALIC ACID

>  <Name>
SIA.pdb

>  <RI>
0

>  <Rbt.Current_Directory>
/home/malgorzata/Desktop/rDOCK_IFD/Wyniki/12_neuraminidase

>  <Rbt.Executable>
rbdock ($Id: //depot/dev/client3/rdock/2013.1/src/exe/rbdock.cxx#4 $)

>  <Rbt.Library>
libRbt.so (2013.1, Build901 2013/11/27)

>  <Rbt.Parameter_File>
/home/malgorzata/Desktop/rDock_2013.1_src/data/scripts/soft_docking.prm

>  <Rbt.Receptor>
cavity.prm

>  <SCORE>
-65.2461

>  <SCORE.INTER>
-36.511

>  <SCORE.INTER.CONST>
1

>  <SCORE.INTER.POLAR>
-8.80928

>  <SCORE.INTER.REPUL>
0.323632

>  <SCORE.INTER.ROT>
5

>  <SCORE.INTER.VDW>
-18.5776

>  <SCORE.INTER.norm>
-1.73862

>  <SCORE.INTRA>
-6.01465

>  <SCORE.INTRA.DIHEDRAL>
-9.49766

>  <SCORE.INTRA.DIHEDRAL.0>
24.6845

>  <SCORE.INTRA.POLAR>
0.135396

>  <SCORE.INTRA.POLAR.0>
-0.967721

>  <SCORE.INTRA.REPUL>
0

>  <SCORE.INTRA.REPUL.0>
0

>  <SCORE.INTRA.VDW>
-4.57546

>  <SCORE.INTRA.VDW.0>
7.44847

>  <SCORE.INTRA.norm>
-0.286412

>  <SCORE.RESTR>
0.658328

>  <SCORE.RESTR.CAVITY>
0.131666

>  <SCORE.RESTR.norm>
0.0313489

>  <SCORE.SYSTEM>
-23.3788

>  <SCORE.SYSTEM.CONST>
0

>  <SCORE.SYSTEM.DIHEDRAL>
8.82611

>  <SCORE.SYSTEM.POLAR>
-6.23238

>  <SCORE.SYSTEM.REPUL>
0.0340601

>  <SCORE.SYSTEM.VDW>
-6.77204

>  <SCORE.SYSTEM.norm>
-1.11328

>  <SCORE.heavy>
21

>  <SCORE.norm>
-3.10696

$$$$
SIA.pdb
  rDOCK(R)          3D
libRbt.so/2013.1/901 2013/11/27
 28 28  0  0  0  0  0  0  0  0999 V2000
   -3.5748   60.2023   -5.2730 C   0  0  0  0  0  0
   -3.8768   59.2802   -6.4571 C   0  0  0  0  0  0
   -4.5614   59.6582   -7.7644 C   0  0  0  0  0  0
   -4.1980   58.7288   -8.9122 C   0  0  0  0  0  0
   -3.7524   57.3526   -8.4250 C   0  0  0  0  0  0
   -2.4971   57.5204   -7.5630 C   0  0  0  0  0  0
   -2.0599   56.1854   -6.9315 C   0  0  0  0  0  0
   -0.6596   56.2617   -6.3201 C   0  0  0  0  0  0
    0.4312   56.8988   -7.2160 C   0  0  0  0  0  0
   -2.7401   56.9299  -10.6924 C   0  0  0  0  0  0
   -2.6120   55.8681  -11.7720 C   0  0  0  0  0  0
   -3.4609   56.6074   -9.6363 N   0  0  0  0  0  0
   -4.3870   61.1435   -5.2055 O   0  0  0  0  0  0
   -2.6383   60.2526   -4.4541 O   0  0  0  0  0  0
   -4.4372   58.3255   -5.5526 O   0  0  0  0  0  0
   -5.3614   58.5539   -9.6867 O   0  0  0  0  0  0
   -2.7525   58.3921   -6.4421 O   0  0  0  0  0  0
   -2.9288   55.7964   -5.8796 O   0  0  0  0  0  0
   -0.8108   57.1113   -5.2054 O   0  0  0  0  0  0
    1.6245   57.1264   -6.4821 O   0  0  0  0  0  0
   -2.2412   58.0535  -10.7743 O   0  0  0  0  0  0
   -3.8517   55.7042   -9.5496 H   0  0  0  0  0  0
   -4.4157   57.4952   -6.0665 H   0  0  0  0  0  0
   -5.8309   59.4118   -9.6823 H   0  0  0  0  0  0
   -3.3573   55.2033   -6.5348 H   0  0  0  0  0  0
    0.0935   57.3853   -4.9991 H   0  0  0  0  0  0
    2.2539   57.2047   -7.2253 H   0  0  0  0  0  0
   -2.5270   61.0114   -3.9157 H   0  0  0  0  0  0
  1 13  2  0  0  0
  1 14  1  0  0  0
  2  1  1  0  0  0
  2  3  1  0  0  0
  2 15  1  0  0  0
  2 17  1  0  0  0
  3  4  1  0  0  0
  4  5  1  0  0  0
  4 16  1  0  0  0
  5  6  1  0  0  0
  5 12  1  0  0  0
  6  7  1  0  0  0
  6 17  1  0  0  0
  7  8  1  0  0  0
  7 18  1  0  0  0
  8  9  1  0  0  0
  8 19  1  0  0  0
  9 20  1  0  0  0
 10 11  1  0  0  0
 10 12  1  0  0  0
 10 21  2  0  0  0
 12 22  1  0  0  0
 14 28  1  0  0  0
 15 23  1  0  0  0
 16 24  1  0  0  0
 18 25  1  0  0  0
 19 26  1  0  0  0
 20 27  1  0  0  0
M  END
>  <CHROM.0>
-178.11289311,-67.18396291,63.37832129,-57.42735068,21.92090846,30.29655724
139.43362764,156.90299460,-138.78295214,61.49819289

>  <CHROM.1>
165.97065009,27.72333222,-160.27555421,36.36372534,48.75634373,167.74952864
-47.85940493,99.22807770,170.12860199,-162.25562567,160.60550697,-2.71667566
57.92003809,-7.40878888,1.57067623,-0.56961279,1.13445356

>  <FORMUL>
      SIA    C11 H19 N1 O9

>  <HET>
 SIA  A 467      39

>  <HETNAM>
     SIA O-SIALIC ACID

>  <Name>
SIA.pdb

>  <RI>
0

>  <Rbt.Current_Directory>
/home/malgorzata/Desktop/rDOCK_IFD/Wyniki/12_neuraminidase

>  <Rbt.Executable>
rbdock ($Id: //depot/dev/client3/rdock/2013.1/src/exe/rbdock.cxx#4 $)

>  <Rbt.Library>
libRbt.so (2013.1, Build901 2013/11/27)

>  <Rbt.Parameter_File>
/home/malgorzata/Desktop/rDock_2013.1_src/data/scripts/soft_docking.prm

>  <Rbt.Receptor>
cavity.prm

>  <SCORE>
-57.8501

>  <SCORE.INTER>
-25.3773

>  <SCORE.INTER.CONST>
1

>  <SCORE.INTER.POLAR>
-7.13123

>  <SCORE.INTER.REPUL>
0.602381

>  <SCORE.INTER.ROT>
5

>  <SCORE.INTER.VDW>
-14.543

>  <SCORE.INTER.norm>
-1.20844

>  <SCORE.INTRA>
-4.62962

>  <SCORE.INTRA.DIHEDRAL>
-8.49643

>  <SCORE.INTRA.DIHEDRAL.0>
24.6845

>  <SCORE.INTRA.POLAR>
0.967721

>  <SCORE.INTRA.POLAR.0>
-0.967721

>  <SCORE.INTRA.REPUL>
0

>  <SCORE.INTRA.REPUL.0>
0

>  <SCORE.INTRA.VDW>
-6.22059

>  <SCORE.INTRA.VDW.0>
7.44847

>  <SCORE.INTRA.norm>
-0.220458

>  <SCORE.RESTR>
0.678864

>  <SCORE.RESTR.CAVITY>
0.135773

>  <SCORE.RESTR.norm>
0.0323269

>  <SCORE.SYSTEM>
-28.5221

>  <SCORE.SYSTEM.CONST>
0

>  <SCORE.SYSTEM.DIHEDRAL>
4.64253

>  <SCORE.SYSTEM.POLAR>
-7.30255

>  <SCORE.SYSTEM.REPUL>
0.0340601

>  <SCORE.SYSTEM.VDW>
-6.18502

>  <SCORE.SYSTEM.norm>
-1.3582

>  <SCORE.heavy>
21

>  <SCORE.norm>
-2.75477

$$$$
SIA.pdb
  rDOCK(R)          3D
libRbt.so/2013.1/901 2013/11/27
 28 28  0  0  0  0  0  0  0  0999 V2000
   -2.3450   57.7934   -5.4546 C   0  0  0  0  0  0
   -1.5704   56.6905   -6.1805 C   0  0  0  0  0  0
   -2.1533   55.5339   -6.9825 C   0  0  0  0  0  0
   -1.1853   54.9872   -8.0205 C   0  0  0  0  0  0
    0.2710   55.2667   -7.6591 C   0  0  0  0  0  0
    0.4792   56.7834   -7.6000 C   0  0  0  0  0  0
    1.8968   57.1431   -7.1175 C   0  0  0  0  0  0
    2.9842   56.4265   -7.9205 C   0  0  0  0  0  0
    4.0361   57.3422   -8.5938 C   0  0  0  0  0  0
    0.8639   54.7136  -10.0439 C   0  0  0  0  0  0
    1.9094   54.0045  -10.8885 C   0  0  0  0  0  0
    1.0407   54.6736   -8.7377 N   0  0  0  0  0  0
   -2.8797   58.5822   -6.2559 O   0  0  0  0  0  0
   -2.4503   58.1072   -4.2544 O   0  0  0  0  0  0
   -0.7897   56.4820   -5.0013 O   0  0  0  0  0  0
   -1.3590   53.5898   -8.0521 O   0  0  0  0  0  0
   -0.4040   57.3890   -6.6330 O   0  0  0  0  0  0
    2.1573   58.5312   -7.2522 O   0  0  0  0  0  0
    3.6757   55.6567   -6.9630 O   0  0  0  0  0  0
    4.6679   58.1806   -7.6387 O   0  0  0  0  0  0
   -0.1261   55.2787  -10.5115 O   0  0  0  0  0  0
    1.8390   54.2394   -8.3503 H   0  0  0  0  0  0
    0.0152   56.0471   -5.3432 H   0  0  0  0  0  0
   -2.1202   53.4166   -8.6413 H   0  0  0  0  0  0
    2.4967   58.4948   -6.3313 H   0  0  0  0  0  0
    3.0139   55.0225   -6.6545 H   0  0  0  0  0  0
    4.0077   58.8997   -7.5991 H   0  0  0  0  0  0
   -2.9633   58.8516   -4.0080 H   0  0  0  0  0  0
  1 13  2  0  0  0
  1 14  1  0  0  0
  2  1  1  0  0  0
  2  3  1  0  0  0
  2 15  1  0  0  0
  2 17  1  0  0  0
  3  4  1  0  0  0
  4  5  1  0  0  0
  4 16  1  0  0  0
  5  6  1  0  0  0
  5 12  1  0  0  0
  6  7  1  0  0  0
  6 17  1  0  0  0
  7  8  1  0  0  0
  7 18  1  0  0  0
  8  9  1  0  0  0
  8 19  1  0  0  0
  9 20  1  0  0  0
 10 11  1  0  0  0
 10 12  1  0  0  0
 10 21  2  0  0  0
 12 22  1  0  0  0
 14 28  1  0  0  0
 15 23  1  0  0  0
 16 24  1  0  0  0
 18 25  1  0  0  0
 19 26  1  0  0  0
 20 27  1  0  0  0
M  END
>  <CHROM.0>
164.74235548,72.95479353,-22.52471161,-86.76743104,-91.99867961,58.03759809
43.02083120,85.45112767,-157.29178421,93.56781927

>  <CHROM.1>
177.89294262,-70.75736241,-158.46735086,83.46793355,44.42005189,52.15461051
123.68042192,132.40211576,56.07179589,64.44241302,-83.81458589,0.44341522
56.36777032,-7.47582821,-2.62484206,-0.26511648,-2.37194038

>  <FORMUL>
      SIA    C11 H19 N1 O9

>  <HET>
 SIA  A 467      39

>  <HETNAM>
     SIA O-SIALIC ACID

>  <Name>
SIA.pdb

>  <RI>
0

>  <Rbt.Current_Directory>
/home/malgorzata/Desktop/rDOCK_IFD/Wyniki/12_neuraminidase

>  <Rbt.Executable>
rbdock ($Id: //depot/dev/client3/rdock/2013.1/src/exe/rbdock.cxx#4 $)

>  <Rbt.Library>
libRbt.so (2013.1, Build901 2013/11/27)

>  <Rbt.Parameter_File>
/home/malgorzata/Desktop/rDock_2013.1_src/data/scripts/soft_docking.prm

>  <Rbt.Receptor>
cavity.prm

>  <SCORE>
-61.0804

>  <SCORE.INTER>
-34.3537

>  <SCORE.INTER.CONST>
1

>  <SCORE.INTER.POLAR>
-8.03881

>  <SCORE.INTER.REPUL>
1.70763

>  <SCORE.INTER.ROT>
5

>  <SCORE.INTER.VDW>
-25.9598

>  <SCORE.INTER.norm>
-1.63589

>  <SCORE.INTRA>
-4.96154

>  <SCORE.INTRA.DIHEDRAL>
-3.64033

>  <SCORE.INTRA.DIHEDRAL.0>
24.6845

>  <SCORE.INTRA.POLAR>
0.544199

>  <SCORE.INTRA.POLAR.0>
-0.967721

>  <SCORE.INTRA.REPUL>
0

>  <SCORE.INTRA.REPUL.0>
0

>  <SCORE.INTRA.VDW>
-6.08375

>  <SCORE.INTRA.VDW.0>
7.44847

>  <SCORE.INTRA.norm>
-0.236264

>  <SCORE.RESTR>
1.7983

>  <SCORE.RESTR.CAVITY>
0.359661

>  <SCORE.RESTR.norm>
0.0856335

>  <SCORE.SYSTEM>
-23.5635

>  <SCORE.SYSTEM.CONST>
0

>  <SCORE.SYSTEM.DIHEDRAL>
9.86854

>  <SCORE.SYSTEM.POLAR>
-6.78218

>  <SCORE.SYSTEM.REPUL>
0.477104

>  <SCORE.SYSTEM.VDW>
-7.82389

>  <SCORE.SYSTEM.norm>
-1.12207

>  <SCORE.heavy>
21

>  <SCORE.norm>
-2.90859

$$$$
SIA.pdb
  rDOCK(R)          3D
libRbt.so/2013.1/901 2013/11/27
 28 28  0  0  0  0  0  0  0  0999 V2000
   -1.7785   57.6790   -5.1132 C   0  0  0  0  0  0
   -2.8565   58.6163   -5.6635 C   0  0  0  0  0  0
   -2.6724   60.0550   -6.1289 C   0  0  0  0  0  0
   -3.7359   60.4954   -7.1231 C   0  0  0  0  0  0
   -5.0236   59.6869   -6.9906 C   0  0  0  0  0  0
   -4.7113   58.2158   -7.2831 C   0  0  0  0  0  0
   -5.9394   57.3171   -7.0463 C   0  0  0  0  0  0
   -6.8374   57.2213   -8.2812 C   0  0  0  0  0  0
   -6.6629   55.9458   -9.1419 C   0  0  0  0  0  0
   -5.6607   60.7547   -9.1811 C   0  0  0  0  0  0
   -6.8635   61.2063   -9.9928 C   0  0  0  0  0  0
   -5.9149   60.2428   -7.9927 N   0  0  0  0  0  0
   -1.0311   58.2627   -4.3065 O   0  0  0  0  0  0
   -1.4480   56.5109   -5.3897 O   0  0  0  0  0  0
   -3.6973   58.2752   -4.5588 O   0  0  0  0  0  0
   -4.0414   61.8395   -6.8334 O   0  0  0  0  0  0
   -3.7058   57.7113   -6.3797 O   0  0  0  0  0  0
   -5.5597   55.9871   -6.7307 O   0  0  0  0  0  0
   -8.1462   57.1776   -7.7590 O   0  0  0  0  0  0
   -7.3918   56.0463  -10.3555 O   0  0  0  0  0  0
   -4.4947   60.8720   -9.5616 O   0  0  0  0  0  0
   -6.8456   60.1267   -7.6826 H   0  0  0  0  0  0
   -4.3687   58.9844   -4.5648 H   0  0  0  0  0  0
   -3.2477   62.3620   -7.0648 H   0  0  0  0  0  0
   -5.3745   56.3195   -5.8253 H   0  0  0  0  0  0
   -8.6363   57.8027   -8.3107 H   0  0  0  0  0  0
   -8.2786   56.2348   -9.9915 H   0  0  0  0  0  0
   -2.1017   55.8825   -5.6260 H   0  0  0  0  0  0
  1 13  2  0  0  0
  1 14  1  0  0  0
  2  1  1  0  0  0
  2  3  1  0  0  0
  2 15  1  0  0  0
  2 17  1  0  0  0
  3  4  1  0  0  0
  4  5  1  0  0  0
  4 16  1  0  0  0
  5  6  1  0  0  0
  5 12  1  0  0  0
  6  7  1  0  0  0
  6 17  1  0  0  0
  7  8  1  0  0  0
  7 18  1  0  0  0
  8  9  1  0  0  0
  8 19  1  0  0  0
  9 20  1  0  0  0
 10 11  1  0  0  0
 10 12  1  0  0  0
 10 21  2  0  0  0
 12 22  1  0  0  0
 14 28  1  0  0  0
 15 23  1  0  0  0
 16 24  1  0  0  0
 18 25  1  0  0  0
 19 26  1  0  0  0
 20 27  1  0  0  0
M  END
>  <CHROM.0>
57.89847680,81.22499810,75.09096620,-115.55752440,-102.86305205,40.18867743
-136.14576272,136.83509107,10.72253890,22.78571134

>  <CHROM.1>
-36.10334903,43.29360889,163.34722038,68.09893820,33.23265714,86.96307369
99.68240324,78.60406193,-171.42204325,134.39972575,-55.15976330,-4.70055786
58.54043369,-7.22218823,0.14447435,0.67904079,2.85718790

>  <FORMUL>
      SIA    C11 H19 N1 O9

>  <HET>
 SIA  A 467      39

>  <HETNAM>
     SIA O-SIALIC ACID

>  <Name>
SIA.pdb

>  <RI>
0

>  <Rbt.Current_Directory>
/home/malgorzata/Desktop/rDOCK_IFD/Wyniki/12_neuraminidase

>  <Rbt.Executable>
rbdock ($Id: //depot/dev/client3/rdock/2013.1/src/exe/rbdock.cxx#4 $)

>  <Rbt.Library>
libRbt.so (2013.1, Build901 2013/11/27)

>  <Rbt.Parameter_File>
/home/malgorzata/Desktop/rDock_2013.1_src/data/scripts/soft_docking.prm

>  <Rbt.Receptor>
cavity.prm

>  <SCORE>
-71.1778

>  <SCORE.INTER>
-43.7971

>  <SCORE.INTER.CONST>
1

>  <SCORE.INTER.POLAR>
-11.399

>  <SCORE.INTER.REPUL>
0.134

>  <SCORE.INTER.ROT>
5

>  <SCORE.INTER.VDW>
-16.1104

>  <SCORE.INTER.norm>
-2.08558

>  <SCORE.INTRA>
-3.41954

>  <SCORE.INTRA.DIHEDRAL>
3.07877

>  <SCORE.INTRA.DIHEDRAL.0>
24.6845

>  <SCORE.INTRA.POLAR>
0.967721

>  <SCORE.INTRA.POLAR.0>
-0.967721

>  <SCORE.INTRA.REPUL>
0

>  <SCORE.INTRA.REPUL.0>
0

>  <SCORE.INTRA.VDW>
-7.32555

>  <SCORE.INTRA.VDW.0>
7.44847

>  <SCORE.INTRA.norm>
-0.162835

>  <SCORE.RESTR>
0

>  <SCORE.RESTR.CAVITY>
0

>  <SCORE.RESTR.norm>
0

>  <SCORE.SYSTEM>
-23.9612

>  <SCORE.SYSTEM.CONST>
0

>  <SCORE.SYSTEM.DIHEDRAL>
5.62952

>  <SCORE.SYSTEM.POLAR>
-6.67835

>  <SCORE.SYSTEM.REPUL>
0.278082

>  <SCORE.SYSTEM.VDW>
-5.45995

>  <SCORE.SYSTEM.norm>
-1.14101

>  <SCORE.heavy>
21

>  <SCORE.norm>
-3.38942

$$$$
SIA.pdb
  rDOCK(R)          3D
libRbt.so/2013.1/901 2013/11/27
 28 28  0  0  0  0  0  0  0  0999 V2000
   -3.1542   58.1275   -3.3142 C   0  0  0  0  0  0
   -2.6074   57.8591   -4.7186 C   0  0  0  0  0  0
   -1.3264   57.1179   -5.0794 C   0  0  0  0  0  0
   -1.3613   56.5242   -6.4793 C   0  0  0  0  0  0
   -2.3362   57.2579   -7.3961 C   0  0  0  0  0  0
   -3.7477   57.1296   -6.8142 C   0  0  0  0  0  0
   -4.7704   57.9524   -7.6198 C   0  0  0  0  0  0
   -6.2142   57.5601   -7.3002 C   0  0  0  0  0  0
   -7.2849   58.0664   -8.2979 C   0  0  0  0  0  0
   -2.1309   57.0496   -9.8979 C   0  0  0  0  0  0
   -1.9909   56.0243  -11.0107 C   0  0  0  0  0  0
   -2.2311   56.5737   -8.6722 N   0  0  0  0  0  0
   -2.4238   57.6337   -2.4352 O   0  0  0  0  0  0
   -4.2124   58.6348   -2.8983 O   0  0  0  0  0  0
   -2.8076   59.2365   -5.0447 O   0  0  0  0  0  0
   -0.0697   56.6693   -7.0221 O   0  0  0  0  0  0
   -3.8076   57.6727   -5.4789 O   0  0  0  0  0  0
   -4.6660   59.3382   -7.3346 O   0  0  0  0  0  0
   -6.2207   56.1528   -7.3838 O   0  0  0  0  0  0
   -8.4013   57.1910   -8.3352 O   0  0  0  0  0  0
   -2.1846   58.2655  -10.0898 O   0  0  0  0  0  0
   -2.1718   55.6023   -8.5024 H   0  0  0  0  0  0
   -3.5624   59.2095   -5.6639 H   0  0  0  0  0  0
    0.4633   55.9257   -6.6765 H   0  0  0  0  0  0
   -4.5496   59.4662   -8.3014 H   0  0  0  0  0  0
   -6.9906   55.8935   -6.8591 H   0  0  0  0  0  0
   -8.8044   57.4854   -9.1751 H   0  0  0  0  0  0
   -4.4229   58.5978   -1.9860 H   0  0  0  0  0  0
  1 13  2  0  0  0
  1 14  1  0  0  0
  2  1  1  0  0  0
  2  3  1  0  0  0
  2 15  1  0  0  0
  2 17  1  0  0  0
  3  4  1  0  0  0
  4  5  1  0  0  0
  4 16  1  0  0  0
  5  6  1  0  0  0
  5 12  1  0  0  0
  6  7  1  0  0  0
  6 17  1  0  0  0
  7  8  1  0  0  0
  7 18  1  0  0  0
  8  9  1  0  0  0
  8 19  1  0  0  0
  9 20  1  0  0  0
 10 11  1  0  0  0
 10 12  1  0  0  0
 10 21  2  0  0  0
 12 22  1  0  0  0
 14 28  1  0  0  0
 15 23  1  0  0  0
 16 24  1  0  0  0
 18 25  1  0  0  0
 19 26  1  0  0  0
 20 27  1  0  0  0
M  END
>  <CHROM.0>
169.46246804,91.84388698,-44.07844109,-46.94266405,-108.19971752,94.75636626
164.80817955,-179.81100419,-116.33262864,-47.31575587

>  <CHROM.1>
170.89402365,-1.26673004,-108.72234127,82.17749232,-134.85899528,164.90596631
-165.24244526,124.71733832,151.53839475,158.31109360,-162.76408707,-3.56857906
57.53959135,-6.78197082,1.17344515,-0.11480739,1.38264676

>  <FORMUL>
      SIA    C11 H19 N1 O9

>  <HET>
 SIA  A 467      39

>  <HETNAM>
     SIA O-SIALIC ACID

>  <Name>
SIA.pdb

>  <RI>
0

>  <Rbt.Current_Directory>
/home/malgorzata/Desktop/rDOCK_IFD/Wyniki/12_neuraminidase

>  <Rbt.Executable>
rbdock ($Id: //depot/dev/client3/rdock/2013.1/src/exe/rbdock.cxx#4 $)

>  <Rbt.Library>
libRbt.so (2013.1, Build901 2013/11/27)

>  <Rbt.Parameter_File>
/home/malgorzata/Desktop/rDock_2013.1_src/data/scripts/soft_docking.prm

>  <Rbt.Receptor>
cavity.prm

>  <SCORE>
-58.2577

>  <SCORE.INTER>
-31.6881

>  <SCORE.INTER.CONST>
1

>  <SCORE.INTER.POLAR>
-8.13166

>  <SCORE.INTER.REPUL>
0.605547

>  <SCORE.INTER.ROT>
5

>  <SCORE.INTER.VDW>
-17.4682

>  <SCORE.INTER.norm>
-1.50896

>  <SCORE.INTRA>
-8.86535

>  <SCORE.INTRA.DIHEDRAL>
1.09432

>  <SCORE.INTRA.DIHEDRAL.0>
24.6845

>  <SCORE.INTRA.POLAR>
-0.0231055

>  <SCORE.INTRA.POLAR.0>
-0.967721

>  <SCORE.INTRA.REPUL>
0

>  <SCORE.INTRA.REPUL.0>
0

>  <SCORE.INTRA.VDW>
-9.00566

>  <SCORE.INTRA.VDW.0>
7.44847

>  <SCORE.INTRA.norm>
-0.42216

>  <SCORE.RESTR>
4.37508

>  <SCORE.RESTR.CAVITY>
0.875016

>  <SCORE.RESTR.norm>
0.208337

>  <SCORE.SYSTEM>
-22.0793

>  <SCORE.SYSTEM.CONST>
0

>  <SCORE.SYSTEM.DIHEDRAL>
11.7683

>  <SCORE.SYSTEM.POLAR>
-6.98893

>  <SCORE.SYSTEM.REPUL>
0.337273

>  <SCORE.SYSTEM.VDW>
-5.88751

>  <SCORE.SYSTEM.norm>
-1.0514

>  <SCORE.heavy>
21

>  <SCORE.norm>
-2.77417

$$$$
SIA.pdb
  rDOCK(R)          3D
libRbt.so/2013.1/901 2013/11/27
 28 28  0  0  0  0  0  0  0  0999 V2000
   -1.8147   57.5016   -5.2260 C   0  0  0  0  0  0
   -2.7312   58.3793   -6.0823 C   0  0  0  0  0  0
   -2.4197   59.7620   -6.6406 C   0  0  0  0  0  0
   -3.2409   60.0995   -7.8756 C   0  0  0  0  0  0
   -4.5466   59.3115   -7.9368 C   0  0  0  0  0  0
   -4.2149   57.8174   -8.0077 C   0  0  0  0  0  0
   -5.4862   56.9504   -7.9457 C   0  0  0  0  0  0
   -5.3263   55.6282   -8.6986 C   0  0  0  0  0  0
   -6.6199   55.0496   -9.3231 C   0  0  0  0  0  0
   -6.4639   59.7411   -9.5129 C   0  0  0  0  0  0
   -6.7942   60.3508  -10.8651 C   0  0  0  0  0  0
   -5.1949   59.7628   -9.1548 N   0  0  0  0  0  0
   -1.0907   56.7718   -5.9283 O   0  0  0  0  0  0
   -1.7327   57.3041   -3.9994 O   0  0  0  0  0  0
   -3.7924   58.1556   -5.1509 O   0  0  0  0  0  0
   -3.5683   61.4669   -7.7933 O   0  0  0  0  0  0
   -3.4329   57.4069   -6.8667 O   0  0  0  0  0  0
   -5.8184   56.6060   -6.6102 O   0  0  0  0  0  0
   -4.4663   55.9389   -9.7717 O   0  0  0  0  0  0
   -7.6349   56.0387   -9.4008 O   0  0  0  0  0  0
   -7.3001   59.2164   -8.7756 O   0  0  0  0  0  0
   -4.5169   60.1959   -9.7281 H   0  0  0  0  0  0
   -4.2603   59.0128   -5.1391 H   0  0  0  0  0  0
   -2.7313   61.9611   -7.9010 H   0  0  0  0  0  0
   -5.4711   57.4900   -6.3602 H   0  0  0  0  0  0
   -4.2525   55.0766  -10.1537 H   0  0  0  0  0  0
   -7.2670   56.5856  -10.1220 H   0  0  0  0  0  0
   -2.5064   57.3111   -3.4709 H   0  0  0  0  0  0
  1 13  2  0  0  0
  1 14  1  0  0  0
  2  1  1  0  0  0
  2  3  1  0  0  0
  2 15  1  0  0  0
  2 17  1  0  0  0
  3  4  1  0  0  0
  4  5  1  0  0  0
  4 16  1  0  0  0
  5  6  1  0  0  0
  5 12  1  0  0  0
  6  7  1  0  0  0
  6 17  1  0  0  0
  7  8  1  0  0  0
  7 18  1  0  0  0
  8  9  1  0  0  0
  8 19  1  0  0  0
  9 20  1  0  0  0
 10 11  1  0  0  0
 10 12  1  0  0  0
 10 21  2  0  0  0
 12 22  1  0  0  0
 14 28  1  0  0  0
 15 23  1  0  0  0
 16 24  1  0  0  0
 18 25  1  0  0  0
 19 26  1  0  0  0
 20 27  1  0  0  0
M  END
>  <CHROM.0>
51.70012922,63.77580360,61.56186582,-84.90151701,-72.92418855,131.93632569
147.45443145,53.64014169,156.55115996,-100.54333150

>  <CHROM.1>
34.25296320,-88.77569509,143.74020169,67.93396316,-157.32878528,150.46398230
-149.59504207,34.41034968,16.57093990,170.89971383,72.04686421,-4.47368520
58.04031392,-7.67734402,0.12891996,0.73582232,2.92538678

>  <FORMUL>
      SIA    C11 H19 N1 O9

>  <HET>
 SIA  A 467      39

>  <HETNAM>
     SIA O-SIALIC ACID

>  <Name>
SIA.pdb

>  <RI>
0

>  <Rbt.Current_Directory>
/home/malgorzata/Desktop/rDOCK_IFD/Wyniki/12_neuraminidase

>  <Rbt.Executable>
rbdock ($Id: //depot/dev/client3/rdock/2013.1/src/exe/rbdock.cxx#4 $)

>  <Rbt.Library>
libRbt.so (2013.1, Build901 2013/11/27)

>  <Rbt.Parameter_File>
/home/malgorzata/Desktop/rDock_2013.1_src/data/scripts/soft_docking.prm

>  <Rbt.Receptor>
cavity.prm

>  <SCORE>
-60.8373

>  <SCORE.INTER>
-32.4121

>  <SCORE.INTER.CONST>
1

>  <SCORE.INTER.POLAR>
-7.89383

>  <SCORE.INTER.REPUL>
0.289566

>  <SCORE.INTER.ROT>
5

>  <SCORE.INTER.VDW>
-17.4209

>  <SCORE.INTER.norm>
-1.54343

>  <SCORE.INTRA>
-0.213973

>  <SCORE.INTRA.DIHEDRAL>
6.89304

>  <SCORE.INTRA.DIHEDRAL.0>
24.6845

>  <SCORE.INTRA.POLAR>
0.602068

>  <SCORE.INTRA.POLAR.0>
-0.967721

>  <SCORE.INTRA.REPUL>
0

>  <SCORE.INTRA.REPUL.0>
0

>  <SCORE.INTRA.VDW>
-3.63961

>  <SCORE.INTRA.VDW.0>
7.44847

>  <SCORE.INTRA.norm>
-0.0101892

>  <SCORE.RESTR>
0

>  <SCORE.RESTR.CAVITY>
0

>  <SCORE.RESTR.norm>
0

>  <SCORE.SYSTEM>
-28.2112

>  <SCORE.SYSTEM.CONST>
0

>  <SCORE.SYSTEM.DIHEDRAL>
3.70313

>  <SCORE.SYSTEM.POLAR>
-6.73116

>  <SCORE.SYSTEM.REPUL>
0.0340601

>  <SCORE.SYSTEM.VDW>
-7.34716

>  <SCORE.SYSTEM.norm>
-1.34339

>  <SCORE.heavy>
21

>  <SCORE.norm>
-2.89702

$$$$
SIA.pdb
  rDOCK(R)          3D
libRbt.so/2013.1/901 2013/11/27
 28 28  0  0  0  0  0  0  0  0999 V2000
   -1.1613   56.7946   -6.0195 C   0  0  0  0  0  0
   -1.7187   55.9853   -7.1933 C   0  0  0  0  0  0
   -3.0837   56.1421   -7.8511 C   0  0  0  0  0  0
   -3.1096   55.6385   -9.2861 C   0  0  0  0  0  0
   -2.0296   54.5937   -9.5534 C   0  0  0  0  0  0
   -0.6580   55.2363   -9.3235 C   0  0  0  0  0  0
    0.4799   54.2065   -9.4529 C   0  0  0  0  0  0
    1.2738   54.3762  -10.7497 C   0  0  0  0  0  0
    2.5248   53.4751  -10.8947 C   0  0  0  0  0  0
   -2.1076   54.9430  -12.0467 C   0  0  0  0  0  0
   -2.3203   54.2041  -13.3574 C   0  0  0  0  0  0
   -2.2084   54.2241  -10.9459 N   0  0  0  0  0  0
   -1.4203   58.0070   -6.1339 O   0  0  0  0  0  0
   -0.4281   56.4994   -5.0575 O   0  0  0  0  0  0
   -1.3267   54.7808   -6.5307 O   0  0  0  0  0  0
   -4.3608   55.0233   -9.4858 O   0  0  0  0  0  0
   -0.5442   55.7440   -7.9777 O   0  0  0  0  0  0
    1.4188   54.3306   -8.3966 O   0  0  0  0  0  0
    0.3759   53.9834  -11.7631 O   0  0  0  0  0  0
    2.4244   52.3267  -10.0668 O   0  0  0  0  0  0
   -1.8833   56.1522  -11.9709 O   0  0  0  0  0  0
   -2.3703   53.2506  -10.9929 H   0  0  0  0  0  0
   -2.0091   54.6764   -5.8399 H   0  0  0  0  0  0
   -5.0384   55.6767   -9.2206 H   0  0  0  0  0  0
    1.2730   53.3728   -8.2360 H   0  0  0  0  0  0
    0.6607   54.4927  -12.5344 H   0  0  0  0  0  0
    2.5185   52.7536   -9.1931 H   0  0  0  0  0  0
   -0.0296   57.1766   -4.5470 H   0  0  0  0  0  0
  1 13  2  0  0  0
  1 14  1  0  0  0
  2  1  1  0  0  0
  2  3  1  0  0  0
  2 15  1  0  0  0
  2 17  1  0  0  0
  3  4  1  0  0  0
  4  5  1  0  0  0
  4 16  1  0  0  0
  5  6  1  0  0  0
  5 12  1  0  0  0
  6  7  1  0  0  0
  6 17  1  0  0  0
  7  8  1  0  0  0
  7 18  1  0  0  0
  8  9  1  0  0  0
  8 19  1  0  0  0
  9 20  1  0  0  0
 10 11  1  0  0  0
 10 12  1  0  0  0
 10 21  2  0  0  0
 12 22  1  0  0  0
 14 28  1  0  0  0
 15 23  1  0  0  0
 16 24  1  0  0  0
 18 25  1  0  0  0
 19 26  1  0  0  0
 20 27  1  0  0  0
M  END
>  <CHROM.0>
178.05800508,84.41526461,46.35667963,15.12295090,-104.22574596,162.05064864
-80.85291200,78.85577889,-97.60922430,-5.34677707

>  <CHROM.1>
165.61440325,-42.29838709,76.38833816,53.19420757,62.41118251,106.47069405
174.06367463,126.45621476,22.50784765,151.65432799,-69.79251511,-0.91550845
55.05844740,-9.21280504,-1.84079247,0.35866763,-1.92376823

>  <FORMUL>
      SIA    C11 H19 N1 O9

>  <HET>
 SIA  A 467      39

>  <HETNAM>
     SIA O-SIALIC ACID

>  <Name>
SIA.pdb

>  <RI>
0

>  <Rbt.Current_Directory>
/home/malgorzata/Desktop/rDOCK_IFD/Wyniki/12_neuraminidase

>  <Rbt.Executable>
rbdock ($Id: //depot/dev/client3/rdock/2013.1/src/exe/rbdock.cxx#4 $)

>  <Rbt.Library>
libRbt.so (2013.1, Build901 2013/11/27)

>  <Rbt.Parameter_File>
/home/malgorzata/Desktop/rDock_2013.1_src/data/scripts/soft_docking.prm

>  <Rbt.Receptor>
cavity.prm

>  <SCORE>
-53.0493

>  <SCORE.INTER>
-24.7522

>  <SCORE.INTER.CONST>
1

>  <SCORE.INTER.POLAR>
-5.25003

>  <SCORE.INTER.REPUL>
0.721676

>  <SCORE.INTER.ROT>
5

>  <SCORE.INTER.VDW>
-20.9104

>  <SCORE.INTER.norm>
-1.17867

>  <SCORE.INTRA>
-4.17784

>  <SCORE.INTRA.DIHEDRAL>
-0.829938

>  <SCORE.INTRA.DIHEDRAL.0>
24.6845

>  <SCORE.INTRA.POLAR>
0.397692

>  <SCORE.INTRA.POLAR.0>
-0.967721

>  <SCORE.INTRA.REPUL>
0

>  <SCORE.INTRA.REPUL.0>
0

>  <SCORE.INTRA.VDW>
-5.36401

>  <SCORE.INTRA.VDW.0>
7.44847

>  <SCORE.INTRA.norm>
-0.198945

>  <SCORE.RESTR>
1.41673

>  <SCORE.RESTR.CAVITY>
0.283346

>  <SCORE.RESTR.norm>
0.0674633

>  <SCORE.SYSTEM>
-25.536

>  <SCORE.SYSTEM.CONST>
0

>  <SCORE.SYSTEM.DIHEDRAL>
10.5443

>  <SCORE.SYSTEM.POLAR>
-7.33345

>  <SCORE.SYSTEM.REPUL>
0.0340601

>  <SCORE.SYSTEM.VDW>
-6.04472

>  <SCORE.SYSTEM.norm>
-1.216

>  <SCORE.heavy>
21

>  <SCORE.norm>
-2.52616

$$$$
SIA.pdb
  rDOCK(R)          3D
libRbt.so/2013.1/901 2013/11/27
 28 28  0  0  0  0  0  0  0  0999 V2000
   -7.2265   56.9464   -8.6073 C   0  0  0  0  0  0
   -5.7650   56.4910   -8.6158 C   0  0  0  0  0  0
   -4.9342   56.0923   -9.8287 C   0  0  0  0  0  0
   -3.4395   56.2597   -9.6023 C   0  0  0  0  0  0
   -3.0673   56.2028   -8.1232 C   0  0  0  0  0  0
   -3.7675   57.3555   -7.3965 C   0  0  0  0  0  0
   -3.5391   57.2890   -5.8749 C   0  0  0  0  0  0
   -2.1911   57.8832   -5.4622 C   0  0  0  0  0  0
   -1.9766   59.3749   -5.8188 C   0  0  0  0  0  0
   -0.7036   55.7643   -7.3711 C   0  0  0  0  0  0
    0.7377   56.1592   -7.6467 C   0  0  0  0  0  0
   -1.6250   56.3662   -8.0976 N   0  0  0  0  0  0
   -7.4938   57.6124   -7.5899 O   0  0  0  0  0  0
   -8.1977   56.6955   -9.3449 O   0  0  0  0  0  0
   -6.0594   55.5736   -7.5597 O   0  0  0  0  0  0
   -2.8005   55.1830  -10.2474 O   0  0  0  0  0  0
   -5.1990   57.2747   -7.5581 O   0  0  0  0  0  0
   -4.5263   58.0214   -5.1665 O   0  0  0  0  0  0
   -2.1897   57.8025   -4.0547 O   0  0  0  0  0  0
   -2.2463   60.2095   -4.7031 O   0  0  0  0  0  0
   -1.0383   54.9552   -6.5042 O   0  0  0  0  0  0
   -1.3697   57.0036   -8.8079 H   0  0  0  0  0  0
   -6.1013   54.7132   -8.0197 H   0  0  0  0  0  0
   -2.3254   55.5599  -11.0147 H   0  0  0  0  0  0
   -4.9297   57.1522   -4.9516 H   0  0  0  0  0  0
   -2.8913   58.4120   -3.7874 H   0  0  0  0  0  0
   -2.6401   60.9728   -5.1689 H   0  0  0  0  0  0
   -8.0590   56.4900  -10.2485 H   0  0  0  0  0  0
  1 13  2  0  0  0
  1 14  1  0  0  0
  2  1  1  0  0  0
  2  3  1  0  0  0
  2 15  1  0  0  0
  2 17  1  0  0  0
  3  4  1  0  0  0
  4  5  1  0  0  0
  4 16  1  0  0  0
  5  6  1  0  0  0
  5 12  1  0  0  0
  6  7  1  0  0  0
  6 17  1  0  0  0
  7  8  1  0  0  0
  7 18  1  0  0  0
  8  9  1  0  0  0
  8 19  1  0  0  0
  9 20  1  0  0  0
 10 11  1  0  0  0
 10 12  1  0  0  0
 10 21  2  0  0  0
 12 22  1  0  0  0
 14 28  1  0  0  0
 15 23  1  0  0  0
 16 24  1  0  0  0
 18 25  1  0  0  0
 19 26  1  0  0  0
 20 27  1  0  0  0
M  END
>  <CHROM.0>
91.24831760,68.03742329,26.88386251,99.86885110,-61.19628033,-134.30013316
-128.64494605,89.15485853,-129.65793575,-13.37123154

>  <CHROM.1>
-29.29717562,-157.57978180,103.40706376,110.39486391,-139.22315862,81.79445702
60.23097529,103.47285104,98.01021574,-66.23073487,-144.35239864,-3.70544954
56.94792355,-7.35259415,2.66795690,0.17776663,-2.21182120

>  <FORMUL>
      SIA    C11 H19 N1 O9

>  <HET>
 SIA  A 467      39

>  <HETNAM>
     SIA O-SIALIC ACID

>  <Name>
SIA.pdb

>  <RI>
0

>  <Rbt.Current_Directory>
/home/malgorzata/Desktop/rDOCK_IFD/Wyniki/12_neuraminidase

>  <Rbt.Executable>
rbdock ($Id: //depot/dev/client3/rdock/2013.1/src/exe/rbdock.cxx#4 $)

>  <Rbt.Library>
libRbt.so (2013.1, Build901 2013/11/27)

>  <Rbt.Parameter_File>
/home/malgorzata/Desktop/rDock_2013.1_src/data/scripts/soft_docking.prm

>  <Rbt.Receptor>
cavity.prm

>  <SCORE>
-57.8282

>  <SCORE.INTER>
-31.4478

>  <SCORE.INTER.CONST>
1

>  <SCORE.INTER.POLAR>
-7.85144

>  <SCORE.INTER.REPUL>
0.355091

>  <SCORE.INTER.ROT>
5

>  <SCORE.INTER.VDW>
-16.9283

>  <SCORE.INTER.norm>
-1.49751

>  <SCORE.INTRA>
-1.60728

>  <SCORE.INTRA.DIHEDRAL>
9.56614

>  <SCORE.INTRA.DIHEDRAL.0>
24.6845

>  <SCORE.INTRA.POLAR>
0.878456

>  <SCORE.INTRA.POLAR.0>
-0.967721

>  <SCORE.INTRA.REPUL>
0

>  <SCORE.INTRA.REPUL.0>
0

>  <SCORE.INTRA.VDW>
-6.50726

>  <SCORE.INTRA.VDW.0>
7.44847

>  <SCORE.INTRA.norm>
-0.0765373

>  <SCORE.RESTR>
0

>  <SCORE.RESTR.CAVITY>
0

>  <SCORE.RESTR.norm>
0

>  <SCORE.SYSTEM>
-24.7731

>  <SCORE.SYSTEM.CONST>
0

>  <SCORE.SYSTEM.DIHEDRAL>
13.4393

>  <SCORE.SYSTEM.POLAR>
-7.18586

>  <SCORE.SYSTEM.REPUL>
0.0340601

>  <SCORE.SYSTEM.VDW>
-7.23112

>  <SCORE.SYSTEM.norm>
-1.17967

>  <SCORE.heavy>
21

>  <SCORE.norm>
-2.75372

$$$$
SIA.pdb
  rDOCK(R)          3D
libRbt.so/2013.1/901 2013/11/27
 28 28  0  0  0  0  0  0  0  0999 V2000
   -3.0238   58.4727   -5.2654 C   0  0  0  0  0  0
   -2.6914   57.7200   -6.5563 C   0  0  0  0  0  0
   -1.3712   57.0500   -6.9149 C   0  0  0  0  0  0
   -1.5322   55.9372   -7.9393 C   0  0  0  0  0  0
   -2.7823   56.1149   -8.7966 C   0  0  0  0  0  0
   -4.0126   56.0725   -7.8845 C   0  0  0  0  0  0
   -5.3071   56.3707   -8.6638 C   0  0  0  0  0  0
   -6.5237   56.4971   -7.7447 C   0  0  0  0  0  0
   -7.9035   56.4525   -8.4463 C   0  0  0  0  0  0
   -3.0634   54.9155  -10.9937 C   0  0  0  0  0  0
   -2.8892   53.5569  -11.6518 C   0  0  0  0  0  0
   -2.7682   54.9869   -9.7105 N   0  0  0  0  0  0
   -2.4084   58.0043   -4.2897 O   0  0  0  0  0  0
   -3.8476   59.3651   -4.9917 O   0  0  0  0  0  0
   -3.2214   58.8113   -7.3125 O   0  0  0  0  0  0
   -0.4139   55.9968   -8.7936 O   0  0  0  0  0  0
   -3.9440   57.1021   -6.8761 O   0  0  0  0  0  0
   -5.2191   57.5966   -9.3723 O   0  0  0  0  0  0
   -6.4566   55.3575   -6.9174 O   0  0  0  0  0  0
   -8.9474   56.7685   -7.5382 O   0  0  0  0  0  0
   -3.4850   55.9125  -11.5822 O   0  0  0  0  0  0
   -2.4125   54.2000   -9.2307 H   0  0  0  0  0  0
   -3.1292   58.5058   -8.2356 H   0  0  0  0  0  0
    0.2088   55.3082   -8.4863 H   0  0  0  0  0  0
   -6.0224   57.3045   -9.8560 H   0  0  0  0  0  0
   -7.2432   55.4302   -6.3596 H   0  0  0  0  0  0
   -8.6018   56.3237   -6.7399 H   0  0  0  0  0  0
   -4.4901   59.6198   -5.6245 H   0  0  0  0  0  0
  1 13  2  0  0  0
  1 14  1  0  0  0
  2  1  1  0  0  0
  2  3  1  0  0  0
  2 15  1  0  0  0
  2 17  1  0  0  0
  3  4  1  0  0  0
  4  5  1  0  0  0
  4 16  1  0  0  0
  5  6  1  0  0  0
  5 12  1  0  0  0
  6  7  1  0  0  0
  6 17  1  0  0  0
  7  8  1  0  0  0
  7 18  1  0  0  0
  8  9  1  0  0  0
  8 19  1  0  0  0
  9 20  1  0  0  0
 10 11  1  0  0  0
 10 12  1  0  0  0
 10 21  2  0  0  0
 12 22  1  0  0  0
 14 28  1  0  0  0
 15 23  1  0  0  0
 16 24  1  0  0  0
 18 25  1  0  0  0
 19 26  1  0  0  0
 20 27  1  0  0  0
M  END
>  <CHROM.0>
73.50920113,-169.48748830,163.64027746,-128.07227975,-104.43562649,150.59311893
-163.42936240,10.44913640,-146.34152313,35.37211094

>  <CHROM.1>
7.89498829,-31.60537128,-178.06992118,99.57675093,-139.50232130,-173.20275401
-165.73683795,166.33484687,-171.59931730,-178.24866170,-37.56598338,-3.94213152
56.64593469,-7.99472862,-1.84001113,-0.00797110,-2.13870327

>  <FORMUL>
      SIA    C11 H19 N1 O9

>  <HET>
 SIA  A 467      39

>  <HETNAM>
     SIA O-SIALIC ACID

>  <Name>
SIA.pdb

>  <RI>
0

>  <Rbt.Current_Directory>
/home/malgorzata/Desktop/rDOCK_IFD/Wyniki/12_neuraminidase

>  <Rbt.Executable>
rbdock ($Id: //depot/dev/client3/rdock/2013.1/src/exe/rbdock.cxx#4 $)

>  <Rbt.Library>
libRbt.so (2013.1, Build901 2013/11/27)

>  <Rbt.Parameter_File>
/home/malgorzata/Desktop/rDock_2013.1_src/data/scripts/soft_docking.prm

>  <Rbt.Receptor>
cavity.prm

>  <SCORE>
-57.419

>  <SCORE.INTER>
-31.3946

>  <SCORE.INTER.CONST>
1

>  <SCORE.INTER.POLAR>
-7.15661

>  <SCORE.INTER.REPUL>
0.999798

>  <SCORE.INTER.ROT>
5

>  <SCORE.INTER.VDW>
-22.4611

>  <SCORE.INTER.norm>
-1.49498

>  <SCORE.INTRA>
-2.01079

>  <SCORE.INTRA.DIHEDRAL>
-10.6181

>  <SCORE.INTRA.DIHEDRAL.0>
24.6845

>  <SCORE.INTRA.POLAR>
0.960544

>  <SCORE.INTRA.POLAR.0>
-0.967721

>  <SCORE.INTRA.REPUL>
0.0843339

>  <SCORE.INTRA.REPUL.0>
0

>  <SCORE.INTRA.VDW>
-3.5747

>  <SCORE.INTRA.VDW.0>
7.44847

>  <SCORE.INTRA.norm>
-0.0957521

>  <SCORE.RESTR>
0.160631

>  <SCORE.RESTR.CAVITY>
0.0321263

>  <SCORE.RESTR.norm>
0.00764911

>  <SCORE.SYSTEM>
-24.1743

>  <SCORE.SYSTEM.CONST>
0

>  <SCORE.SYSTEM.DIHEDRAL>
6.40577

>  <SCORE.SYSTEM.POLAR>
-6.27368

>  <SCORE.SYSTEM.REPUL>
0.0340601

>  <SCORE.SYSTEM.VDW>
-6.21694

>  <SCORE.SYSTEM.norm>
-1.15116

>  <SCORE.heavy>
21

>  <SCORE.norm>
-2.73424

$$$$
