SIA.pdb
  rDOCK(R)          3D
libRbt.so/2013.1/901 2013/11/27
 28 28  0  0  0  0  0  0  0  0999 V2000
   -1.5685   57.9935   -5.3997 C   0  0  0  0  0  0
   -2.6494   58.8406   -6.0760 C   0  0  0  0  0  0
   -2.4660   60.1907   -6.7573 C   0  0  0  0  0  0
   -3.5384   60.4789   -7.7966 C   0  0  0  0  0  0
   -4.8271   59.7058   -7.5296 C   0  0  0  0  0  0
   -4.5221   58.2059   -7.5973 C   0  0  0  0  0  0
   -5.7502   57.3594   -7.2141 C   0  0  0  0  0  0
   -6.7182   57.1750   -8.3844 C   0  0  0  0  0  0
   -6.4759   55.9256   -9.2666 C   0  0  0  0  0  0
   -7.0095   60.4121   -8.5702 C   0  0  0  0  0  0
   -7.6285   60.8383   -9.8910 C   0  0  0  0  0  0
   -5.7270   60.1064   -8.5961 N   0  0  0  0  0  0
   -0.5351   57.9306   -6.0912 O   0  0  0  0  0  0
   -1.5617   57.2876   -4.3741 O   0  0  0  0  0  0
   -3.4797   58.6758   -4.9240 O   0  0  0  0  0  0
   -3.8370   61.8529   -7.7124 O   0  0  0  0  0  0
   -3.5087   57.8408   -6.6374 O   0  0  0  0  0  0
   -5.3765   56.0543   -6.8021 O   0  0  0  0  0  0
   -7.9760   56.9973   -7.7729 O   0  0  0  0  0  0
   -7.4622   55.8193  -10.2815 O   0  0  0  0  0  0
   -7.6422   60.3134   -7.5176 O   0  0  0  0  0  0
   -5.2038   60.1980   -9.4290 H   0  0  0  0  0  0
   -3.9667   59.5212   -4.8798 H   0  0  0  0  0  0
   -4.2590   61.9937   -6.8415 H   0  0  0  0  0  0
   -5.0319   56.4767   -5.9852 H   0  0  0  0  0  0
   -8.3100   57.8984   -7.6649 H   0  0  0  0  0  0
   -6.8813   55.6501  -11.0487 H   0  0  0  0  0  0
   -2.3333   57.2201   -3.8467 H   0  0  0  0  0  0
  1 13  2  0  0  0
  1 14  1  0  0  0
  2  1  1  0  0  0
  2  3  1  0  0  0
  2 15  1  0  0  0
  2 17  1  0  0  0
  3  4  1  0  0  0
  4  5  1  0  0  0
  4 16  1  0  0  0
  5  6  1  0  0  0
  5 12  1  0  0  0
  6  7  1  0  0  0
  6 17  1  0  0  0
  7  8  1  0  0  0
  7 18  1  0  0  0
  8  9  1  0  0  0
  8 19  1  0  0  0
  9 20  1  0  0  0
 10 11  1  0  0  0
 10 12  1  0  0  0
 10 21  2  0  0  0
 12 22  1  0  0  0
 14 28  1  0  0  0
 15 23  1  0  0  0
 16 24  1  0  0  0
 18 25  1  0  0  0
 19 26  1  0  0  0
 20 27  1  0  0  0
M  END
>  <CHROM.0>
58.72655074,42.56444646,53.29430292,-109.90158961,14.39834807,75.41411518
-68.12318187,-7.74324978,142.44653098,94.70021157

>  <CHROM.1>
-1.15692296,-44.83528656,146.61928167,-66.82327022,-137.54511699,82.35828418
90.81218503,72.01627465,177.36569235,87.65664634,132.48994218,-4.79707961
58.53740785,-7.37219904,0.01911915,0.55717454,3.00991771

>  <FORMUL>
      SIA    C11 H19 N1 O9

>  <HET>
 SIA  A 467      39

>  <HETNAM>
     SIA O-SIALIC ACID

>  <Name>
SIA.pdb

>  <RI>
0

>  <Rbt.Current_Directory>
/home/malgorzata/Desktop/rDOCK_IFD/Wyniki/12_neuraminidase

>  <Rbt.Executable>
rbdock ($Id: //depot/dev/client3/rdock/2013.1/src/exe/rbdock.cxx#4 $)

>  <Rbt.Library>
libRbt.so (2013.1, Build901 2013/11/27)

>  <Rbt.Parameter_File>
/home/malgorzata/Desktop/rDock_2013.1_src/data/scripts/soft_docking.prm

>  <Rbt.Receptor>
cavity.prm

>  <SCORE>
-64.248

>  <SCORE.INTER>
-33.0213

>  <SCORE.INTER.CONST>
1

>  <SCORE.INTER.POLAR>
-9.87613

>  <SCORE.INTER.REPUL>
0.8968

>  <SCORE.INTER.ROT>
5

>  <SCORE.INTER.VDW>
-14.3264

>  <SCORE.INTER.norm>
-1.57244

>  <SCORE.INTRA>
-5.30606

>  <SCORE.INTRA.DIHEDRAL>
-0.307967

>  <SCORE.INTRA.DIHEDRAL.0>
24.6845

>  <SCORE.INTRA.POLAR>
0.856321

>  <SCORE.INTRA.POLAR.0>
-0.967721

>  <SCORE.INTRA.REPUL>
0

>  <SCORE.INTRA.REPUL.0>
0

>  <SCORE.INTRA.VDW>
-8.15596

>  <SCORE.INTRA.VDW.0>
7.44847

>  <SCORE.INTRA.norm>
-0.252669

>  <SCORE.RESTR>
0.48197

>  <SCORE.RESTR.CAVITY>
0.48197

>  <SCORE.RESTR.norm>
0.022951

>  <SCORE.SYSTEM>
-26.4026

>  <SCORE.SYSTEM.CONST>
0

>  <SCORE.SYSTEM.DIHEDRAL>
5.9112

>  <SCORE.SYSTEM.POLAR>
-6.77318

>  <SCORE.SYSTEM.REPUL>
0.0340601

>  <SCORE.SYSTEM.VDW>
-6.49971

>  <SCORE.SYSTEM.norm>
-1.25727

>  <SCORE.heavy>
21

>  <SCORE.norm>
-3.05943

$$$$
SIA.pdb
  rDOCK(R)          3D
libRbt.so/2013.1/901 2013/11/27
 28 28  0  0  0  0  0  0  0  0999 V2000
   -1.9721   59.9809   -4.7501 C   0  0  0  0  0  0
   -3.1492   59.8152   -5.7147 C   0  0  0  0  0  0
   -4.1212   60.8953   -6.1720 C   0  0  0  0  0  0
   -4.7682   60.5795   -7.5118 C   0  0  0  0  0  0
   -4.7892   59.0822   -7.8068 C   0  0  0  0  0  0
   -3.3451   58.5746   -7.8703 C   0  0  0  0  0  0
   -3.2884   57.0450   -8.0408 C   0  0  0  0  0  0
   -1.8728   56.5441   -8.3338 C   0  0  0  0  0  0
   -0.8554   56.6886   -7.1752 C   0  0  0  0  0  0
   -6.4912   58.2625   -9.4729 C   0  0  0  0  0  0
   -6.9324   58.4240  -10.9181 C   0  0  0  0  0  0
   -5.4422   58.9682   -9.0984 N   0  0  0  0  0  0
   -2.0640   61.0328   -4.0904 O   0  0  0  0  0  0
   -0.9175   59.3412   -4.5805 O   0  0  0  0  0  0
   -3.5772   58.6702   -4.9735 O   0  0  0  0  0  0
   -6.1037   61.0216   -7.4403 O   0  0  0  0  0  0
   -2.6514   58.8333   -6.6319 O   0  0  0  0  0  0
   -3.7088   56.3728   -6.8644 O   0  0  0  0  0  0
   -2.0310   55.1615   -8.5595 O   0  0  0  0  0  0
    0.4121   56.1657   -7.5417 O   0  0  0  0  0  0
   -7.0357   57.5011   -8.6716 O   0  0  0  0  0  0
   -5.0071   59.5957   -9.7253 H   0  0  0  0  0  0
   -2.7777   58.1097   -4.9515 H   0  0  0  0  0  0
   -6.1881   61.7581   -8.0781 H   0  0  0  0  0  0
   -4.3459   55.8943   -7.4386 H   0  0  0  0  0  0
   -1.2529   54.9219   -9.0816 H   0  0  0  0  0  0
    0.1436   55.2586   -7.7860 H   0  0  0  0  0  0
   -0.7566   58.5630   -5.0771 H   0  0  0  0  0  0
  1 13  2  0  0  0
  1 14  1  0  0  0
  2  1  1  0  0  0
  2  3  1  0  0  0
  2 15  1  0  0  0
  2 17  1  0  0  0
  3  4  1  0  0  0
  4  5  1  0  0  0
  4 16  1  0  0  0
  5  6  1  0  0  0
  5 12  1  0  0  0
  6  7  1  0  0  0
  6 17  1  0  0  0
  7  8  1  0  0  0
  7 18  1  0  0  0
  8  9  1  0  0  0
  8 19  1  0  0  0
  9 20  1  0  0  0
 10 11  1  0  0  0
 10 12  1  0  0  0
 10 21  2  0  0  0
 12 22  1  0  0  0
 14 28  1  0  0  0
 15 23  1  0  0  0
 16 24  1  0  0  0
 18 25  1  0  0  0
 19 26  1  0  0  0
 20 27  1  0  0  0
M  END
>  <CHROM.0>
165.73798575,128.42765032,-104.83064685,44.78302332,46.54105885,100.49408050
21.69965611,138.05563250,-165.05729624,58.99837716

>  <CHROM.1>
-3.63222475,16.95172590,-53.50292928,113.89690211,-125.39457198,170.68705344
67.67953039,126.14709240,178.58490857,157.58172675,-56.22646139,-3.51816041
58.47321203,-7.22833515,0.28269198,-0.51874030,0.69176635

>  <FORMUL>
      SIA    C11 H19 N1 O9

>  <HET>
 SIA  A 467      39

>  <HETNAM>
     SIA O-SIALIC ACID

>  <Name>
SIA.pdb

>  <RI>
0

>  <Rbt.Current_Directory>
/home/malgorzata/Desktop/rDOCK_IFD/Wyniki/12_neuraminidase

>  <Rbt.Executable>
rbdock ($Id: //depot/dev/client3/rdock/2013.1/src/exe/rbdock.cxx#4 $)

>  <Rbt.Library>
libRbt.so (2013.1, Build901 2013/11/27)

>  <Rbt.Parameter_File>
/home/malgorzata/Desktop/rDock_2013.1_src/data/scripts/soft_docking.prm

>  <Rbt.Receptor>
cavity.prm

>  <SCORE>
-56.4687

>  <SCORE.INTER>
-30.5203

>  <SCORE.INTER.CONST>
1

>  <SCORE.INTER.POLAR>
-7.30388

>  <SCORE.INTER.REPUL>
0.459226

>  <SCORE.INTER.ROT>
5

>  <SCORE.INTER.VDW>
-18.3832

>  <SCORE.INTER.norm>
-1.45335

>  <SCORE.INTRA>
-4.65855

>  <SCORE.INTRA.DIHEDRAL>
-5.2465

>  <SCORE.INTRA.DIHEDRAL.0>
24.6845

>  <SCORE.INTRA.POLAR>
0.832938

>  <SCORE.INTRA.POLAR.0>
-0.967721

>  <SCORE.INTRA.REPUL>
0

>  <SCORE.INTRA.REPUL.0>
0

>  <SCORE.INTRA.VDW>
-6.44124

>  <SCORE.INTRA.VDW.0>
7.44847

>  <SCORE.INTRA.norm>
-0.221836

>  <SCORE.RESTR>
0

>  <SCORE.RESTR.CAVITY>
0

>  <SCORE.RESTR.norm>
0

>  <SCORE.SYSTEM>
-21.2899

>  <SCORE.SYSTEM.CONST>
0

>  <SCORE.SYSTEM.DIHEDRAL>
16.5737

>  <SCORE.SYSTEM.POLAR>
-6.7523

>  <SCORE.SYSTEM.REPUL>
0.183588

>  <SCORE.SYSTEM.VDW>
-7.53688

>  <SCORE.SYSTEM.norm>
-1.0138

>  <SCORE.heavy>
21

>  <SCORE.norm>
-2.68899

$$$$
SIA.pdb
  rDOCK(R)          3D
libRbt.so/2013.1/901 2013/11/27
 28 28  0  0  0  0  0  0  0  0999 V2000
   -3.5527   59.1103   -5.0368 C   0  0  0  0  0  0
   -2.1664   58.5304   -5.3287 C   0  0  0  0  0  0
   -1.8283   57.3979   -6.2898 C   0  0  0  0  0  0
   -0.3906   57.4510   -6.7835 C   0  0  0  0  0  0
    0.5267   58.1966   -5.8180 C   0  0  0  0  0  0
    0.0366   59.6428   -5.6939 C   0  0  0  0  0  0
    0.8396   60.4253   -4.6381 C   0  0  0  0  0  0
    0.9164   61.9200   -4.9553 C   0  0  0  0  0  0
    0.4296   62.8710   -3.8342 C   0  0  0  0  0  0
    2.7555   57.1908   -6.4224 C   0  0  0  0  0  0
    4.0148   57.4577   -7.2302 C   0  0  0  0  0  0
    1.8394   58.1392   -6.4354 N   0  0  0  0  0  0
   -3.6616   60.2755   -5.4618 O   0  0  0  0  0  0
   -4.5257   58.6940   -4.3809 O   0  0  0  0  0  0
   -1.9265   58.4329   -3.9228 O   0  0  0  0  0  0
    0.0664   56.1215   -6.8695 O   0  0  0  0  0  0
   -1.3279   59.6878   -5.2270 O   0  0  0  0  0  0
    0.2480   60.3250   -3.3525 O   0  0  0  0  0  0
    2.2933   62.1709   -5.1252 O   0  0  0  0  0  0
    1.1301   64.1047   -3.8726 O   0  0  0  0  0  0
    2.5744   56.1725   -5.7528 O   0  0  0  0  0  0
    1.9639   58.9526   -6.9819 H   0  0  0  0  0  0
   -2.6378   57.8370   -3.6181 H   0  0  0  0  0  0
    0.6265   56.0703   -7.6695 H   0  0  0  0  0  0
    0.4267   59.3612   -3.4125 H   0  0  0  0  0  0
    2.3566   62.5112   -6.0282 H   0  0  0  0  0  0
    0.5041   64.6571   -3.3651 H   0  0  0  0  0  0
   -5.3522   59.1315   -4.4400 H   0  0  0  0  0  0
  1 13  2  0  0  0
  1 14  1  0  0  0
  2  1  1  0  0  0
  2  3  1  0  0  0
  2 15  1  0  0  0
  2 17  1  0  0  0
  3  4  1  0  0  0
  4  5  1  0  0  0
  4 16  1  0  0  0
  5  6  1  0  0  0
  5 12  1  0  0  0
  6  7  1  0  0  0
  6 17  1  0  0  0
  7  8  1  0  0  0
  7 18  1  0  0  0
  8  9  1  0  0  0
  8 19  1  0  0  0
  9 20  1  0  0  0
 10 11  1  0  0  0
 10 12  1  0  0  0
 10 21  2  0  0  0
 12 22  1  0  0  0
 14 28  1  0  0  0
 15 23  1  0  0  0
 16 24  1  0  0  0
 18 25  1  0  0  0
 19 26  1  0  0  0
 20 27  1  0  0  0
M  END
>  <CHROM.0>
63.40233209,-77.40095983,44.05562489,-135.50608261,-72.18740402,4.58920941
49.00626942,70.40341160,-149.05896929,119.06786338

>  <CHROM.1>
-169.37476497,-111.97687682,60.09137650,141.93608025,-82.62837729,150.62314538
125.11578357,62.89459198,149.41502350,120.78659692,160.21974651,-0.09111373
59.29154102,-5.31823340,2.15878938,0.16160176,0.36569516

>  <FORMUL>
      SIA    C11 H19 N1 O9

>  <HET>
 SIA  A 467      39

>  <HETNAM>
     SIA O-SIALIC ACID

>  <Name>
SIA.pdb

>  <RI>
0

>  <Rbt.Current_Directory>
/home/malgorzata/Desktop/rDOCK_IFD/Wyniki/12_neuraminidase

>  <Rbt.Executable>
rbdock ($Id: //depot/dev/client3/rdock/2013.1/src/exe/rbdock.cxx#4 $)

>  <Rbt.Library>
libRbt.so (2013.1, Build901 2013/11/27)

>  <Rbt.Parameter_File>
/home/malgorzata/Desktop/rDock_2013.1_src/data/scripts/soft_docking.prm

>  <Rbt.Receptor>
cavity.prm

>  <SCORE>
-60.7721

>  <SCORE.INTER>
-36.3231

>  <SCORE.INTER.CONST>
1

>  <SCORE.INTER.POLAR>
-9.41487

>  <SCORE.INTER.REPUL>
0.823154

>  <SCORE.INTER.ROT>
5

>  <SCORE.INTER.VDW>
-18.8283

>  <SCORE.INTER.norm>
-1.72967

>  <SCORE.INTRA>
-0.832479

>  <SCORE.INTRA.DIHEDRAL>
3.86121

>  <SCORE.INTRA.DIHEDRAL.0>
24.6845

>  <SCORE.INTRA.POLAR>
0.967721

>  <SCORE.INTRA.POLAR.0>
-0.967721

>  <SCORE.INTRA.REPUL>
0

>  <SCORE.INTRA.REPUL.0>
0

>  <SCORE.INTRA.VDW>
-4.89497

>  <SCORE.INTRA.VDW.0>
7.44847

>  <SCORE.INTRA.norm>
-0.0396419

>  <SCORE.RESTR>
1.14047

>  <SCORE.RESTR.CAVITY>
1.14047

>  <SCORE.RESTR.norm>
0.0543083

>  <SCORE.SYSTEM>
-24.757

>  <SCORE.SYSTEM.CONST>
0

>  <SCORE.SYSTEM.DIHEDRAL>
6.18817

>  <SCORE.SYSTEM.POLAR>
-7.14432

>  <SCORE.SYSTEM.REPUL>
0.623824

>  <SCORE.SYSTEM.VDW>
-6.67953

>  <SCORE.SYSTEM.norm>
-1.1789

>  <SCORE.heavy>
21

>  <SCORE.norm>
-2.89391

$$$$
SIA.pdb
  rDOCK(R)          3D
libRbt.so/2013.1/901 2013/11/27
 28 28  0  0  0  0  0  0  0  0999 V2000
   -2.1486   59.7649   -5.4137 C   0  0  0  0  0  0
   -3.0047   58.6586   -6.0354 C   0  0  0  0  0  0
   -4.4586   58.7616   -6.4783 C   0  0  0  0  0  0
   -4.8254   57.7407   -7.5444 C   0  0  0  0  0  0
   -3.9172   56.5145   -7.5099 C   0  0  0  0  0  0
   -2.4784   56.9621   -7.7872 C   0  0  0  0  0  0
   -1.4838   55.7949   -7.6447 C   0  0  0  0  0  0
   -1.6419   54.7564   -8.7570 C   0  0  0  0  0  0
   -0.7291   54.9508   -9.9928 C   0  0  0  0  0  0
   -4.2946   55.7519   -9.8806 C   0  0  0  0  0  0
   -4.9118   54.6290  -10.6977 C   0  0  0  0  0  0
   -4.4129   55.6564   -8.5707 N   0  0  0  0  0  0
   -2.5297   60.8953   -5.7703 O   0  0  0  0  0  0
   -1.1094   59.7496   -4.7281 O   0  0  0  0  0  0
   -2.5865   57.7704   -4.9963 O   0  0  0  0  0  0
   -6.1382   57.3102   -7.2702 O   0  0  0  0  0  0
   -2.0442   57.9369   -6.8162 O   0  0  0  0  0  0
   -0.1396   56.2435   -7.7124 O   0  0  0  0  0  0
   -1.2535   53.5407   -8.1579 O   0  0  0  0  0  0
    0.6380   54.9973   -9.6143 O   0  0  0  0  0  0
   -3.7344   56.7312  -10.3759 O   0  0  0  0  0  0
   -4.8439   54.8681   -8.1599 H   0  0  0  0  0  0
   -3.0432   56.9368   -5.2210 H   0  0  0  0  0  0
   -6.1151   56.8893   -6.3877 H   0  0  0  0  0  0
    0.0034   55.7493   -6.8758 H   0  0  0  0  0  0
   -2.0508   53.2448   -7.6973 H   0  0  0  0  0  0
    1.0054   54.3781  -10.2748 H   0  0  0  0  0  0
   -0.7631   58.9351   -4.4204 H   0  0  0  0  0  0
  1 13  2  0  0  0
  1 14  1  0  0  0
  2  1  1  0  0  0
  2  3  1  0  0  0
  2 15  1  0  0  0
  2 17  1  0  0  0
  3  4  1  0  0  0
  4  5  1  0  0  0
  4 16  1  0  0  0
  5  6  1  0  0  0
  5 12  1  0  0  0
  6  7  1  0  0  0
  6 17  1  0  0  0
  7  8  1  0  0  0
  7 18  1  0  0  0
  8  9  1  0  0  0
  8 19  1  0  0  0
  9 20  1  0  0  0
 10 11  1  0  0  0
 10 12  1  0  0  0
 10 21  2  0  0  0
 12 22  1  0  0  0
 14 28  1  0  0  0
 15 23  1  0  0  0
 16 24  1  0  0  0
 18 25  1  0  0  0
 19 26  1  0  0  0
 20 27  1  0  0  0
M  END
>  <CHROM.0>
62.09248300,72.02065203,55.85830947,-21.43669140,-41.16634806,2.27039327
-64.58607276,154.46234183,-177.80051619,15.14223041

>  <CHROM.1>
-7.09989726,-27.28446110,-179.38248871,-61.79609384,74.66844492,69.30021467
93.20689193,128.43365454,55.89050454,83.12736507,132.61626976,-2.67388476
56.88458730,-7.68080961,-1.66928092,0.18905557,-2.40436176

>  <FORMUL>
      SIA    C11 H19 N1 O9

>  <HET>
 SIA  A 467      39

>  <HETNAM>
     SIA O-SIALIC ACID

>  <Name>
SIA.pdb

>  <RI>
0

>  <Rbt.Current_Directory>
/home/malgorzata/Desktop/rDOCK_IFD/Wyniki/12_neuraminidase

>  <Rbt.Executable>
rbdock ($Id: //depot/dev/client3/rdock/2013.1/src/exe/rbdock.cxx#4 $)

>  <Rbt.Library>
libRbt.so (2013.1, Build901 2013/11/27)

>  <Rbt.Parameter_File>
/home/malgorzata/Desktop/rDock_2013.1_src/data/scripts/soft_docking.prm

>  <Rbt.Receptor>
cavity.prm

>  <SCORE>
-60.0786

>  <SCORE.INTER>
-25.7987

>  <SCORE.INTER.CONST>
1

>  <SCORE.INTER.POLAR>
-7.23622

>  <SCORE.INTER.REPUL>
1.13633

>  <SCORE.INTER.ROT>
5

>  <SCORE.INTER.VDW>
-17.2772

>  <SCORE.INTER.norm>
-1.22851

>  <SCORE.INTRA>
-4.87495

>  <SCORE.INTRA.DIHEDRAL>
-1.98202

>  <SCORE.INTRA.DIHEDRAL.0>
24.6845

>  <SCORE.INTRA.POLAR>
0.967721

>  <SCORE.INTRA.POLAR.0>
-0.967721

>  <SCORE.INTRA.REPUL>
0

>  <SCORE.INTRA.REPUL.0>
0

>  <SCORE.INTRA.VDW>
-7.7688

>  <SCORE.INTRA.VDW.0>
7.44847

>  <SCORE.INTRA.norm>
-0.23214

>  <SCORE.RESTR>
0

>  <SCORE.RESTR.CAVITY>
0

>  <SCORE.RESTR.norm>
0

>  <SCORE.SYSTEM>
-29.405

>  <SCORE.SYSTEM.CONST>
0

>  <SCORE.SYSTEM.DIHEDRAL>
3.2081

>  <SCORE.SYSTEM.POLAR>
-7.40843

>  <SCORE.SYSTEM.REPUL>
0.0340601

>  <SCORE.SYSTEM.VDW>
-5.99067

>  <SCORE.SYSTEM.norm>
-1.40024

>  <SCORE.heavy>
21

>  <SCORE.norm>
-2.86089

$$$$
SIA.pdb
  rDOCK(R)          3D
libRbt.so/2013.1/901 2013/11/27
 28 28  0  0  0  0  0  0  0  0999 V2000
   -1.6911   57.7989   -5.1600 C   0  0  0  0  0  0
   -2.7962   58.6311   -5.8154 C   0  0  0  0  0  0
   -2.6438   59.9817   -6.5032 C   0  0  0  0  0  0
   -3.7412   60.2542   -7.5205 C   0  0  0  0  0  0
   -5.0143   59.4659   -7.2250 C   0  0  0  0  0  0
   -4.6923   57.9698   -7.2959 C   0  0  0  0  0  0
   -5.9016   57.1091   -6.8852 C   0  0  0  0  0  0
   -7.0322   57.1652   -7.9143 C   0  0  0  0  0  0
   -7.9885   55.9472   -7.9294 C   0  0  0  0  0  0
   -5.9800   59.5275   -9.5506 C   0  0  0  0  0  0
   -7.1393   60.0907  -10.3557 C   0  0  0  0  0  0
   -5.9412   59.8528   -8.2733 N   0  0  0  0  0  0
   -0.7421   58.5115   -4.7836 O   0  0  0  0  0  0
   -1.5145   56.5731   -5.0322 O   0  0  0  0  0  0
   -3.6002   58.4588   -4.6459 O   0  0  0  0  0  0
   -4.0549   61.6246   -7.4330 O   0  0  0  0  0  0
   -3.6546   57.6194   -6.3566 O   0  0  0  0  0  0
   -5.5497   55.7404   -6.7604 O   0  0  0  0  0  0
   -7.8050   58.2779   -7.5241 O   0  0  0  0  0  0
   -8.3407   55.5922   -9.2576 O   0  0  0  0  0  0
   -5.0871   58.8285  -10.0326 O   0  0  0  0  0  0
   -6.6598   60.3977   -7.8700 H   0  0  0  0  0  0
   -3.7459   59.3751   -4.3410 H   0  0  0  0  0  0
   -4.6617   61.7238   -6.6725 H   0  0  0  0  0  0
   -4.8689   56.0369   -6.1176 H   0  0  0  0  0  0
   -8.3483   58.4662   -8.3017 H   0  0  0  0  0  0
   -7.4733   55.7173   -9.6894 H   0  0  0  0  0  0
   -0.6450   56.2284   -4.9754 H   0  0  0  0  0  0
  1 13  2  0  0  0
  1 14  1  0  0  0
  2  1  1  0  0  0
  2  3  1  0  0  0
  2 15  1  0  0  0
  2 17  1  0  0  0
  3  4  1  0  0  0
  4  5  1  0  0  0
  4 16  1  0  0  0
  5  6  1  0  0  0
  5 12  1  0  0  0
  6  7  1  0  0  0
  6 17  1  0  0  0
  7  8  1  0  0  0
  7 18  1  0  0  0
  8  9  1  0  0  0
  8 19  1  0  0  0
  9 20  1  0  0  0
 10 11  1  0  0  0
 10 12  1  0  0  0
 10 21  2  0  0  0
 12 22  1  0  0  0
 14 28  1  0  0  0
 15 23  1  0  0  0
 16 24  1  0  0  0
 18 25  1  0  0  0
 19 26  1  0  0  0
 20 27  1  0  0  0
M  END
>  <CHROM.0>
-69.41582048,-85.88260728,44.96821359,29.30478417,17.48711845,118.68589876
-101.94494819,168.10989470,35.64039468,-16.58548067

>  <CHROM.1>
151.14871209,25.46376006,119.94869267,-81.34487143,73.99496244,69.56123832
155.26429617,56.23790343,-140.40304178,163.92624292,40.29304586,-4.82136901
58.30734394,-7.23539677,0.14050980,0.58252229,2.70017068

>  <FORMUL>
      SIA    C11 H19 N1 O9

>  <HET>
 SIA  A 467      39

>  <HETNAM>
     SIA O-SIALIC ACID

>  <Name>
SIA.pdb

>  <RI>
0

>  <Rbt.Current_Directory>
/home/malgorzata/Desktop/rDOCK_IFD/Wyniki/12_neuraminidase

>  <Rbt.Executable>
rbdock ($Id: //depot/dev/client3/rdock/2013.1/src/exe/rbdock.cxx#4 $)

>  <Rbt.Library>
libRbt.so (2013.1, Build901 2013/11/27)

>  <Rbt.Parameter_File>
/home/malgorzata/Desktop/rDock_2013.1_src/data/scripts/soft_docking.prm

>  <Rbt.Receptor>
cavity.prm

>  <SCORE>
-68.68

>  <SCORE.INTER>
-39.4463

>  <SCORE.INTER.CONST>
1

>  <SCORE.INTER.POLAR>
-10.2208

>  <SCORE.INTER.REPUL>
0.353482

>  <SCORE.INTER.ROT>
5

>  <SCORE.INTER.VDW>
-16.8631

>  <SCORE.INTER.norm>
-1.8784

>  <SCORE.INTRA>
-5.25189

>  <SCORE.INTRA.DIHEDRAL>
-0.405398

>  <SCORE.INTRA.DIHEDRAL.0>
24.6845

>  <SCORE.INTRA.POLAR>
0.569438

>  <SCORE.INTRA.POLAR.0>
-0.967721

>  <SCORE.INTRA.REPUL>
0

>  <SCORE.INTRA.REPUL.0>
0

>  <SCORE.INTRA.VDW>
-7.1069

>  <SCORE.INTRA.VDW.0>
7.44847

>  <SCORE.INTRA.norm>
-0.25009

>  <SCORE.RESTR>
0

>  <SCORE.RESTR.CAVITY>
0

>  <SCORE.RESTR.norm>
0

>  <SCORE.SYSTEM>
-23.9818

>  <SCORE.SYSTEM.CONST>
0

>  <SCORE.SYSTEM.DIHEDRAL>
8.18449

>  <SCORE.SYSTEM.POLAR>
-6.86844

>  <SCORE.SYSTEM.REPUL>
0.0340601

>  <SCORE.SYSTEM.VDW>
-4.8916

>  <SCORE.SYSTEM.norm>
-1.14199

>  <SCORE.heavy>
21

>  <SCORE.norm>
-3.27047

$$$$
SIA.pdb
  rDOCK(R)          3D
libRbt.so/2013.1/901 2013/11/27
 28 28  0  0  0  0  0  0  0  0999 V2000
   -1.4694   57.8013   -4.2556 C   0  0  0  0  0  0
   -2.3997   58.5548   -5.2096 C   0  0  0  0  0  0
   -2.3285   60.0283   -5.5892 C   0  0  0  0  0  0
   -2.9735   60.3240   -6.9345 C   0  0  0  0  0  0
   -4.0250   59.2849   -7.3141 C   0  0  0  0  0  0
   -3.3439   57.9174   -7.4291 C   0  0  0  0  0  0
   -4.3657   56.7945   -7.6875 C   0  0  0  0  0  0
   -3.7093   55.5238   -8.2307 C   0  0  0  0  0  0
   -3.1963   54.5241   -7.1651 C   0  0  0  0  0  0
   -5.4867   60.5888   -8.8978 C   0  0  0  0  0  0
   -5.7264   60.8454  -10.3763 C   0  0  0  0  0  0
   -4.5347   59.7263   -8.5998 N   0  0  0  0  0  0
   -0.9436   58.5673   -3.4269 O   0  0  0  0  0  0
   -1.0652   56.6242   -4.2179 O   0  0  0  0  0  0
   -3.5264   57.9977   -4.5284 O   0  0  0  0  0  0
   -3.6228   61.5684   -6.8170 O   0  0  0  0  0  0
   -2.7024   57.5536   -6.1890 O   0  0  0  0  0  0
   -5.0354   56.4140   -6.4961 O   0  0  0  0  0  0
   -4.7425   54.8689   -8.9316 O   0  0  0  0  0  0
   -2.7938   53.3022   -7.7646 O   0  0  0  0  0  0
   -6.1441   61.1119   -7.9965 O   0  0  0  0  0  0
   -3.9883   59.3131   -9.3116 H   0  0  0  0  0  0
   -3.4998   57.0571   -4.7899 H   0  0  0  0  0  0
   -2.9434   62.2117   -6.5324 H   0  0  0  0  0  0
   -5.6674   57.1398   -6.6918 H   0  0  0  0  0  0
   -4.4512   54.8981   -9.8534 H   0  0  0  0  0  0
   -3.6214   52.7940   -7.6573 H   0  0  0  0  0  0
   -1.0429   56.1112   -5.0017 H   0  0  0  0  0  0
  1 13  2  0  0  0
  1 14  1  0  0  0
  2  1  1  0  0  0
  2  3  1  0  0  0
  2 15  1  0  0  0
  2 17  1  0  0  0
  3  4  1  0  0  0
  4  5  1  0  0  0
  4 16  1  0  0  0
  5  6  1  0  0  0
  5 12  1  0  0  0
  6  7  1  0  0  0
  6 17  1  0  0  0
  7  8  1  0  0  0
  7 18  1  0  0  0
  8  9  1  0  0  0
  8 19  1  0  0  0
  9 20  1  0  0  0
 10 11  1  0  0  0
 10 12  1  0  0  0
 10 21  2  0  0  0
 12 22  1  0  0  0
 14 28  1  0  0  0
 15 23  1  0  0  0
 16 24  1  0  0  0
 18 25  1  0  0  0
 19 26  1  0  0  0
 20 27  1  0  0  0
M  END
>  <CHROM.0>
-144.26904951,166.87628396,57.74644959,-53.64176351,-130.45453520,98.01372420
12.56097091,162.65722282,165.28982393,62.64874654

>  <CHROM.1>
24.21594975,25.13828097,-70.72234045,56.33810045,-85.44413829,162.19915888
87.95516981,86.55849368,171.16319505,114.04311193,-94.53532223,-3.53690389
58.03106536,-6.84659240,-0.88362705,-0.92296035,0.17692460

>  <FORMUL>
      SIA    C11 H19 N1 O9

>  <HET>
 SIA  A 467      39

>  <HETNAM>
     SIA O-SIALIC ACID

>  <Name>
SIA.pdb

>  <RI>
0

>  <Rbt.Current_Directory>
/home/malgorzata/Desktop/rDOCK_IFD/Wyniki/12_neuraminidase

>  <Rbt.Executable>
rbdock ($Id: //depot/dev/client3/rdock/2013.1/src/exe/rbdock.cxx#4 $)

>  <Rbt.Library>
libRbt.so (2013.1, Build901 2013/11/27)

>  <Rbt.Parameter_File>
/home/malgorzata/Desktop/rDock_2013.1_src/data/scripts/soft_docking.prm

>  <Rbt.Receptor>
cavity.prm

>  <SCORE>
-61.6202

>  <SCORE.INTER>
-30.4038

>  <SCORE.INTER.CONST>
1

>  <SCORE.INTER.POLAR>
-8.00707

>  <SCORE.INTER.REPUL>
0.31536

>  <SCORE.INTER.ROT>
5

>  <SCORE.INTER.VDW>
-15.1566

>  <SCORE.INTER.norm>
-1.4478

>  <SCORE.INTRA>
-4.98695

>  <SCORE.INTRA.DIHEDRAL>
3.11533

>  <SCORE.INTRA.DIHEDRAL.0>
24.6845

>  <SCORE.INTRA.POLAR>
0.906317

>  <SCORE.INTRA.POLAR.0>
-0.967721

>  <SCORE.INTRA.REPUL>
0

>  <SCORE.INTRA.REPUL.0>
0

>  <SCORE.INTRA.VDW>
-8.69149

>  <SCORE.INTRA.VDW.0>
7.44847

>  <SCORE.INTRA.norm>
-0.237474

>  <SCORE.RESTR>
0.176861

>  <SCORE.RESTR.CAVITY>
0.176861

>  <SCORE.RESTR.norm>
0.00842193

>  <SCORE.SYSTEM>
-26.4063

>  <SCORE.SYSTEM.CONST>
0

>  <SCORE.SYSTEM.DIHEDRAL>
8.26319

>  <SCORE.SYSTEM.POLAR>
-7.25588

>  <SCORE.SYSTEM.REPUL>
0.0663524

>  <SCORE.SYSTEM.VDW>
-6.19963

>  <SCORE.SYSTEM.norm>
-1.25744

>  <SCORE.heavy>
21

>  <SCORE.norm>
-2.93429

$$$$
SIA.pdb
  rDOCK(R)          3D
libRbt.so/2013.1/901 2013/11/27
 28 28  0  0  0  0  0  0  0  0999 V2000
   -6.9412   56.3255  -11.7912 C   0  0  0  0  0  0
   -6.0673   55.6052  -10.7612 C   0  0  0  0  0  0
   -5.0970   54.4598  -11.0202 C   0  0  0  0  0  0
   -3.9989   54.3669   -9.9719 C   0  0  0  0  0  0
   -4.4120   54.9928   -8.6426 C   0  0  0  0  0  0
   -4.6976   56.4809   -8.8689 C   0  0  0  0  0  0
   -5.2420   57.1542   -7.5952 C   0  0  0  0  0  0
   -6.2167   58.2910   -7.9090 C   0  0  0  0  0  0
   -7.5760   58.2341   -7.1693 C   0  0  0  0  0  0
   -2.4641   55.6851   -7.2035 C   0  0  0  0  0  0
   -1.3758   55.1239   -6.3036 C   0  0  0  0  0  0
   -3.2649   54.8056   -7.7726 N   0  0  0  0  0  0
   -6.2927   56.6325  -12.8087 O   0  0  0  0  0  0
   -8.1124   56.7471  -11.7638 O   0  0  0  0  0  0
   -7.2102   55.4582   -9.9151 O   0  0  0  0  0  0
   -3.7585   52.9977   -9.7453 O   0  0  0  0  0  0
   -5.7350   56.6640   -9.8547 O   0  0  0  0  0  0
   -5.9559   56.2354   -6.7836 O   0  0  0  0  0  0
   -5.5590   59.4513   -7.4522 O   0  0  0  0  0  0
   -8.6569   58.2318   -8.0891 O   0  0  0  0  0  0
   -2.6051   56.8860   -7.4404 O   0  0  0  0  0  0
   -3.1743   53.8414   -7.5776 H   0  0  0  0  0  0
   -6.8766   54.8969   -9.1888 H   0  0  0  0  0  0
   -2.7877   52.8890   -9.6988 H   0  0  0  0  0  0
   -5.2879   56.4238   -6.0888 H   0  0  0  0  0  0
   -5.0304   59.7317   -8.2120 H   0  0  0  0  0  0
   -9.3433   57.8258   -7.5245 H   0  0  0  0  0  0
   -8.8100   56.1762  -11.5080 H   0  0  0  0  0  0
  1 13  2  0  0  0
  1 14  1  0  0  0
  2  1  1  0  0  0
  2  3  1  0  0  0
  2 15  1  0  0  0
  2 17  1  0  0  0
  3  4  1  0  0  0
  4  5  1  0  0  0
  4 16  1  0  0  0
  5  6  1  0  0  0
  5 12  1  0  0  0
  6  7  1  0  0  0
  6 17  1  0  0  0
  7  8  1  0  0  0
  7 18  1  0  0  0
  8  9  1  0  0  0
  8 19  1  0  0  0
  9 20  1  0  0  0
 10 11  1  0  0  0
 10 12  1  0  0  0
 10 21  2  0  0  0
 12 22  1  0  0  0
 14 28  1  0  0  0
 15 23  1  0  0  0
 16 24  1  0  0  0
 18 25  1  0  0  0
 19 26  1  0  0  0
 20 27  1  0  0  0
M  END
>  <CHROM.0>
6.63916763,68.25692302,50.05528537,-166.43464066,-115.30703748,92.82954648
100.51065461,155.54321519,-168.32507906,98.37859430

>  <CHROM.1>
-52.46535875,-46.80751621,173.61258969,137.21845182,115.77108211,-148.18266972
128.97917021,119.09330696,-123.25350850,88.11145287,157.33163725,-5.34685441
56.24768839,-8.98139685,-2.88990567,-0.59356241,0.95803544

>  <FORMUL>
      SIA    C11 H19 N1 O9

>  <HET>
 SIA  A 467      39

>  <HETNAM>
     SIA O-SIALIC ACID

>  <Name>
SIA.pdb

>  <RI>
0

>  <Rbt.Current_Directory>
/home/malgorzata/Desktop/rDOCK_IFD/Wyniki/12_neuraminidase

>  <Rbt.Executable>
rbdock ($Id: //depot/dev/client3/rdock/2013.1/src/exe/rbdock.cxx#4 $)

>  <Rbt.Library>
libRbt.so (2013.1, Build901 2013/11/27)

>  <Rbt.Parameter_File>
/home/malgorzata/Desktop/rDock_2013.1_src/data/scripts/soft_docking.prm

>  <Rbt.Receptor>
cavity.prm

>  <SCORE>
-51.4154

>  <SCORE.INTER>
-28.2445

>  <SCORE.INTER.CONST>
1

>  <SCORE.INTER.POLAR>
-7.37188

>  <SCORE.INTER.REPUL>
0.0975811

>  <SCORE.INTER.ROT>
5

>  <SCORE.INTER.VDW>
-14.068

>  <SCORE.INTER.norm>
-1.34498

>  <SCORE.INTRA>
3.22116

>  <SCORE.INTRA.DIHEDRAL>
25.0023

>  <SCORE.INTRA.DIHEDRAL.0>
24.6845

>  <SCORE.INTRA.POLAR>
0.967721

>  <SCORE.INTRA.POLAR.0>
-0.967721

>  <SCORE.INTRA.REPUL>
0

>  <SCORE.INTRA.REPUL.0>
0

>  <SCORE.INTRA.VDW>
-5.06955

>  <SCORE.INTRA.VDW.0>
7.44847

>  <SCORE.INTRA.norm>
0.153389

>  <SCORE.RESTR>
0.203939

>  <SCORE.RESTR.CAVITY>
0.203939

>  <SCORE.RESTR.norm>
0.00971136

>  <SCORE.SYSTEM>
-26.596

>  <SCORE.SYSTEM.CONST>
0

>  <SCORE.SYSTEM.DIHEDRAL>
10.2832

>  <SCORE.SYSTEM.POLAR>
-7.64116

>  <SCORE.SYSTEM.REPUL>
0.32353

>  <SCORE.SYSTEM.VDW>
-7.37533

>  <SCORE.SYSTEM.norm>
-1.26648

>  <SCORE.heavy>
21

>  <SCORE.norm>
-2.44835

$$$$
SIA.pdb
  rDOCK(R)          3D
libRbt.so/2013.1/901 2013/11/27
 28 28  0  0  0  0  0  0  0  0999 V2000
   -4.3319   61.2059   -4.4093 C   0  0  0  0  0  0
   -3.3358   60.3801   -5.2272 C   0  0  0  0  0  0
   -1.8584   60.1618   -4.9268 C   0  0  0  0  0  0
   -1.3114   58.8852   -5.5468 C   0  0  0  0  0  0
   -2.1200   58.4380   -6.7615 C   0  0  0  0  0  0
   -3.5558   58.1453   -6.3142 C   0  0  0  0  0  0
   -4.4652   57.8081   -7.5105 C   0  0  0  0  0  0
   -5.8853   57.4399   -7.0765 C   0  0  0  0  0  0
   -7.0031   57.7486   -8.1029 C   0  0  0  0  0  0
   -1.0563   56.1636   -6.5612 C   0  0  0  0  0  0
   -0.4321   55.0520   -7.3883 C   0  0  0  0  0  0
   -1.4584   57.2309   -7.2230 N   0  0  0  0  0  0
   -3.9463   61.3590   -3.2354 O   0  0  0  0  0  0
   -5.4697   61.6483   -4.6537 O   0  0  0  0  0  0
   -3.7817   61.0424   -6.4130 O   0  0  0  0  0  0
   -0.0017   59.1655   -5.9826 O   0  0  0  0  0  0
   -4.1569   59.3102   -5.7112 O   0  0  0  0  0  0
   -4.5961   58.9107   -8.3936 O   0  0  0  0  0  0
   -5.8528   56.0384   -6.9272 O   0  0  0  0  0  0
   -7.8833   58.7482   -7.6127 O   0  0  0  0  0  0
   -1.1698   56.1236   -5.3350 O   0  0  0  0  0  0
   -1.3896   57.2688   -8.2077 H   0  0  0  0  0  0
   -3.8517   60.3141   -7.0599 H   0  0  0  0  0  0
    0.3701   58.3220   -6.3092 H   0  0  0  0  0  0
   -4.3484   58.2874   -9.1110 H   0  0  0  0  0  0
   -5.2305   55.8977   -6.2004 H   0  0  0  0  0  0
   -8.4320   58.1982   -7.0204 H   0  0  0  0  0  0
   -5.8583   61.5034   -5.4940 H   0  0  0  0  0  0
  1 13  2  0  0  0
  1 14  1  0  0  0
  2  1  1  0  0  0
  2  3  1  0  0  0
  2 15  1  0  0  0
  2 17  1  0  0  0
  3  4  1  0  0  0
  4  5  1  0  0  0
  4 16  1  0  0  0
  5  6  1  0  0  0
  5 12  1  0  0  0
  6  7  1  0  0  0
  6 17  1  0  0  0
  7  8  1  0  0  0
  7 18  1  0  0  0
  8  9  1  0  0  0
  8 19  1  0  0  0
  9 20  1  0  0  0
 10 11  1  0  0  0
 10 12  1  0  0  0
 10 21  2  0  0  0
 12 22  1  0  0  0
 14 28  1  0  0  0
 15 23  1  0  0  0
 16 24  1  0  0  0
 18 25  1  0  0  0
 19 26  1  0  0  0
 20 27  1  0  0  0
M  END
>  <CHROM.0>
-161.02045761,-73.66309321,-53.33725954,80.68799938,26.41078217,-35.44568897
21.23150387,-40.78477442,-67.18532077,-108.48676586

>  <CHROM.1>
-1.52955936,-21.28995057,-136.95245840,175.24429355,47.99993676,176.94639362
151.51186041,128.69128760,-114.47047346,64.26812515,-79.58679270,-3.55804442
58.63188105,-6.27249375,-2.69400892,0.24286943,-2.60195055

>  <FORMUL>
      SIA    C11 H19 N1 O9

>  <HET>
 SIA  A 467      39

>  <HETNAM>
     SIA O-SIALIC ACID

>  <Name>
SIA.pdb

>  <RI>
0

>  <Rbt.Current_Directory>
/home/malgorzata/Desktop/rDOCK_IFD/Wyniki/12_neuraminidase

>  <Rbt.Executable>
rbdock ($Id: //depot/dev/client3/rdock/2013.1/src/exe/rbdock.cxx#4 $)

>  <Rbt.Library>
libRbt.so (2013.1, Build901 2013/11/27)

>  <Rbt.Parameter_File>
/home/malgorzata/Desktop/rDock_2013.1_src/data/scripts/soft_docking.prm

>  <Rbt.Receptor>
cavity.prm

>  <SCORE>
-56.8557

>  <SCORE.INTER>
-28.4108

>  <SCORE.INTER.CONST>
1

>  <SCORE.INTER.POLAR>
-7.77499

>  <SCORE.INTER.REPUL>
0.232659

>  <SCORE.INTER.ROT>
5

>  <SCORE.INTER.VDW>
-13.5391

>  <SCORE.INTER.norm>
-1.35289

>  <SCORE.INTRA>
-8.38905

>  <SCORE.INTRA.DIHEDRAL>
-2.22403

>  <SCORE.INTRA.DIHEDRAL.0>
24.6845

>  <SCORE.INTRA.POLAR>
-0.0322787

>  <SCORE.INTRA.POLAR.0>
-0.967721

>  <SCORE.INTRA.REPUL>
0

>  <SCORE.INTRA.REPUL.0>
0

>  <SCORE.INTRA.VDW>
-7.83449

>  <SCORE.INTRA.VDW.0>
7.44847

>  <SCORE.INTRA.norm>
-0.399478

>  <SCORE.RESTR>
0.191587

>  <SCORE.RESTR.CAVITY>
0.191587

>  <SCORE.RESTR.norm>
0.00912319

>  <SCORE.SYSTEM>
-20.2475

>  <SCORE.SYSTEM.CONST>
0

>  <SCORE.SYSTEM.DIHEDRAL>
9.32274

>  <SCORE.SYSTEM.POLAR>
-6.31545

>  <SCORE.SYSTEM.REPUL>
0.399085

>  <SCORE.SYSTEM.VDW>
-5.43173

>  <SCORE.SYSTEM.norm>
-0.964165

>  <SCORE.heavy>
21

>  <SCORE.norm>
-2.70741

$$$$
SIA.pdb
  rDOCK(R)          3D
libRbt.so/2013.1/901 2013/11/27
 28 28  0  0  0  0  0  0  0  0999 V2000
   -1.7647   59.8893   -4.4964 C   0  0  0  0  0  0
   -2.9158   59.6528   -5.4775 C   0  0  0  0  0  0
   -3.9833   60.6542   -5.8997 C   0  0  0  0  0  0
   -4.5906   60.3337   -7.2569 C   0  0  0  0  0  0
   -4.4682   58.8544   -7.6120 C   0  0  0  0  0  0
   -2.9822   58.4884   -7.6829 C   0  0  0  0  0  0
   -2.7800   56.9793   -7.9143 C   0  0  0  0  0  0
   -1.3148   56.6207   -8.1696 C   0  0  0  0  0  0
   -0.3817   56.6869   -6.9355 C   0  0  0  0  0  0
   -4.7009   59.1306  -10.1049 C   0  0  0  0  0  0
   -5.6118   58.7876  -11.2719 C   0  0  0  0  0  0
   -5.1007   58.7323   -8.9131 N   0  0  0  0  0  0
   -1.7403   61.0668   -4.0928 O   0  0  0  0  0  0
   -0.8122   59.1816   -4.1194 O   0  0  0  0  0  0
   -3.2373   58.4431   -4.7869 O   0  0  0  0  0  0
   -5.9622   60.6446   -7.1797 O   0  0  0  0  0  0
   -2.3225   58.7606   -6.4289 O   0  0  0  0  0  0
   -3.1808   56.2198   -6.7849 O   0  0  0  0  0  0
   -1.3508   55.2706   -8.5741 O   0  0  0  0  0  0
    0.9811   56.7327   -7.3289 O   0  0  0  0  0  0
   -3.6547   59.7714  -10.2181 O   0  0  0  0  0  0
   -5.9282   58.2026   -8.8101 H   0  0  0  0  0  0
   -3.0379   57.7519   -5.4474 H   0  0  0  0  0  0
   -6.0529   61.5774   -7.4590 H   0  0  0  0  0  0
   -3.8641   55.8247   -7.3693 H   0  0  0  0  0  0
   -0.9192   55.2770   -9.4395 H   0  0  0  0  0  0
    0.8729   56.5876   -8.2890 H   0  0  0  0  0  0
   -0.0161   59.5827   -3.8307 H   0  0  0  0  0  0
  1 13  2  0  0  0
  1 14  1  0  0  0
  2  1  1  0  0  0
  2  3  1  0  0  0
  2 15  1  0  0  0
  2 17  1  0  0  0
  3  4  1  0  0  0
  4  5  1  0  0  0
  4 16  1  0  0  0
  5  6  1  0  0  0
  5 12  1  0  0  0
  6  7  1  0  0  0
  6 17  1  0  0  0
  7  8  1  0  0  0
  7 18  1  0  0  0
  8  9  1  0  0  0
  8 19  1  0  0  0
  9 20  1  0  0  0
 10 11  1  0  0  0
 10 12  1  0  0  0
 10 21  2  0  0  0
 12 22  1  0  0  0
 14 28  1  0  0  0
 15 23  1  0  0  0
 16 24  1  0  0  0
 18 25  1  0  0  0
 19 26  1  0  0  0
 20 27  1  0  0  0
M  END
>  <CHROM.0>
-38.69723325,59.67797929,62.06548172,143.14785549,-38.45658905,-37.49917480
-130.72941233,165.69537252,-173.91114808,38.61428510

>  <CHROM.1>
152.41617981,-3.19674298,-113.69249624,90.45159986,72.15450615,172.53874653
72.70588628,116.56193476,-162.64315042,123.26501079,-7.04401313,-2.90795505
58.57521998,-7.18374600,0.46998532,-0.65483793,0.94840273

>  <FORMUL>
      SIA    C11 H19 N1 O9

>  <HET>
 SIA  A 467      39

>  <HETNAM>
     SIA O-SIALIC ACID

>  <Name>
SIA.pdb

>  <RI>
0

>  <Rbt.Current_Directory>
/home/malgorzata/Desktop/rDOCK_IFD/Wyniki/12_neuraminidase

>  <Rbt.Executable>
rbdock ($Id: //depot/dev/client3/rdock/2013.1/src/exe/rbdock.cxx#4 $)

>  <Rbt.Library>
libRbt.so (2013.1, Build901 2013/11/27)

>  <Rbt.Parameter_File>
/home/malgorzata/Desktop/rDock_2013.1_src/data/scripts/soft_docking.prm

>  <Rbt.Receptor>
cavity.prm

>  <SCORE>
-61.3618

>  <SCORE.INTER>
-28.7341

>  <SCORE.INTER.CONST>
1

>  <SCORE.INTER.POLAR>
-7.01535

>  <SCORE.INTER.REPUL>
0.100178

>  <SCORE.INTER.ROT>
5

>  <SCORE.INTER.VDW>
-15.7828

>  <SCORE.INTER.norm>
-1.36829

>  <SCORE.INTRA>
-3.04496

>  <SCORE.INTRA.DIHEDRAL>
14.5538

>  <SCORE.INTRA.DIHEDRAL.0>
24.6845

>  <SCORE.INTRA.POLAR>
0.552451

>  <SCORE.INTRA.POLAR.0>
-0.967721

>  <SCORE.INTRA.REPUL>
0

>  <SCORE.INTRA.REPUL.0>
0

>  <SCORE.INTRA.VDW>
-7.83406

>  <SCORE.INTRA.VDW.0>
7.44847

>  <SCORE.INTRA.norm>
-0.144998

>  <SCORE.RESTR>
0

>  <SCORE.RESTR.CAVITY>
0

>  <SCORE.RESTR.norm>
0

>  <SCORE.SYSTEM>
-29.5828

>  <SCORE.SYSTEM.CONST>
0

>  <SCORE.SYSTEM.DIHEDRAL>
4.50267

>  <SCORE.SYSTEM.POLAR>
-7.49719

>  <SCORE.SYSTEM.REPUL>
0.0340601

>  <SCORE.SYSTEM.VDW>
-6.51393

>  <SCORE.SYSTEM.norm>
-1.4087

>  <SCORE.heavy>
21

>  <SCORE.norm>
-2.92199

$$$$
SIA.pdb
  rDOCK(R)          3D
libRbt.so/2013.1/901 2013/11/27
 28 28  0  0  0  0  0  0  0  0999 V2000
   -2.5235   59.1306   -5.6377 C   0  0  0  0  0  0
   -3.7625   59.2864   -6.5232 C   0  0  0  0  0  0
   -3.9985   60.3427   -7.5951 C   0  0  0  0  0  0
   -4.9995   59.8998   -8.6512 C   0  0  0  0  0  0
   -5.9556   58.8298   -8.1311 C   0  0  0  0  0  0
   -5.1404   57.5951   -7.7335 C   0  0  0  0  0  0
   -6.0256   56.5167   -7.0813 C   0  0  0  0  0  0
   -7.1381   56.0344   -8.0142 C   0  0  0  0  0  0
   -6.7102   55.0183   -9.1015 C   0  0  0  0  0  0
   -8.1284   58.2996   -9.2898 C   0  0  0  0  0  0
   -8.7335   58.0793  -10.6663 C   0  0  0  0  0  0
   -6.8325   58.5405   -9.2514 N   0  0  0  0  0  0
   -1.7163   60.0627   -5.8098 O   0  0  0  0  0  0
   -2.1295   58.2231   -4.8818 O   0  0  0  0  0  0
   -4.5887   59.1830   -5.3612 O   0  0  0  0  0  0
   -5.7663   61.0305   -8.9940 O   0  0  0  0  0  0
   -4.1600   57.9250   -6.7277 O   0  0  0  0  0  0
   -5.2743   55.3642   -6.7349 O   0  0  0  0  0  0
   -8.0380   55.3589   -7.1648 O   0  0  0  0  0  0
   -7.6819   53.9951   -9.2537 O   0  0  0  0  0  0
   -8.7711   58.2337   -8.2407 O   0  0  0  0  0  0
   -6.3086   58.6136  -10.0858 H   0  0  0  0  0  0
   -5.3857   58.7289   -5.6964 H   0  0  0  0  0  0
   -6.3046   61.2512   -8.2079 H   0  0  0  0  0  0
   -4.8038   55.9388   -6.0922 H   0  0  0  0  0  0
   -8.7362   55.0560   -7.7617 H   0  0  0  0  0  0
   -7.0898   53.2435   -9.4512 H   0  0  0  0  0  0
   -2.3307   57.3293   -5.0783 H   0  0  0  0  0  0
  1 13  2  0  0  0
  1 14  1  0  0  0
  2  1  1  0  0  0
  2  3  1  0  0  0
  2 15  1  0  0  0
  2 17  1  0  0  0
  3  4  1  0  0  0
  4  5  1  0  0  0
  4 16  1  0  0  0
  5  6  1  0  0  0
  5 12  1  0  0  0
  6  7  1  0  0  0
  6 17  1  0  0  0
  7  8  1  0  0  0
  7 18  1  0  0  0
  8  9  1  0  0  0
  8 19  1  0  0  0
  9 20  1  0  0  0
 10 11  1  0  0  0
 10 12  1  0  0  0
 10 21  2  0  0  0
 12 22  1  0  0  0
 14 28  1  0  0  0
 15 23  1  0  0  0
 16 24  1  0  0  0
 18 25  1  0  0  0
 19 26  1  0  0  0
 20 27  1  0  0  0
M  END
>  <CHROM.0>
-39.96029625,79.49472469,61.88915997,-94.70457397,-61.99157313,176.09496982
-177.12513052,148.36831092,172.29104449,-97.92289834

>  <CHROM.1>
31.78093081,5.43628372,-146.68216953,-67.86387061,-140.73037656,59.89050968
78.79617632,65.48297155,139.01180970,-179.87799848,-145.19715110,-5.63432806
57.90276555,-7.63383330,-0.34221149,0.64914449,2.83788301

>  <FORMUL>
      SIA    C11 H19 N1 O9

>  <HET>
 SIA  A 467      39

>  <HETNAM>
     SIA O-SIALIC ACID

>  <Name>
SIA.pdb

>  <RI>
0

>  <Rbt.Current_Directory>
/home/malgorzata/Desktop/rDOCK_IFD/Wyniki/12_neuraminidase

>  <Rbt.Executable>
rbdock ($Id: //depot/dev/client3/rdock/2013.1/src/exe/rbdock.cxx#4 $)

>  <Rbt.Library>
libRbt.so (2013.1, Build901 2013/11/27)

>  <Rbt.Parameter_File>
/home/malgorzata/Desktop/rDock_2013.1_src/data/scripts/soft_docking.prm

>  <Rbt.Receptor>
cavity.prm

>  <SCORE>
-60.1036

>  <SCORE.INTER>
-28.517

>  <SCORE.INTER.CONST>
1

>  <SCORE.INTER.POLAR>
-7.72854

>  <SCORE.INTER.REPUL>
1.55185

>  <SCORE.INTER.ROT>
5

>  <SCORE.INTER.VDW>
-20.3992

>  <SCORE.INTER.norm>
-1.35795

>  <SCORE.INTRA>
-3.42188

>  <SCORE.INTRA.DIHEDRAL>
-2.45705

>  <SCORE.INTRA.DIHEDRAL.0>
24.6845

>  <SCORE.INTRA.POLAR>
0.769662

>  <SCORE.INTRA.POLAR.0>
-0.967721

>  <SCORE.INTRA.REPUL>
0

>  <SCORE.INTRA.REPUL.0>
0

>  <SCORE.INTRA.VDW>
-5.54732

>  <SCORE.INTRA.VDW.0>
7.44847

>  <SCORE.INTRA.norm>
-0.162947

>  <SCORE.RESTR>
0.252303

>  <SCORE.RESTR.CAVITY>
0.252303

>  <SCORE.RESTR.norm>
0.0120144

>  <SCORE.SYSTEM>
-28.417

>  <SCORE.SYSTEM.CONST>
0

>  <SCORE.SYSTEM.DIHEDRAL>
6.08992

>  <SCORE.SYSTEM.POLAR>
-7.19977

>  <SCORE.SYSTEM.REPUL>
0.0340601

>  <SCORE.SYSTEM.VDW>
-7.15302

>  <SCORE.SYSTEM.norm>
-1.35319

>  <SCORE.heavy>
21

>  <SCORE.norm>
-2.86207

$$$$
