SIA.pdb
  rDOCK(R)          3D
libRbt.so/2013.1/901 2013/11/27
 28 28  0  0  0  0  0  0  0  0999 V2000
   -4.5598   59.9129   -7.1504 C   0  0  0  0  0  0
   -4.3904   58.6064   -7.9300 C   0  0  0  0  0  0
   -4.8879   58.3057   -9.3381 C   0  0  0  0  0  0
   -4.0918   57.2061  -10.0240 C   0  0  0  0  0  0
   -3.4149   56.2713   -9.0253 C   0  0  0  0  0  0
   -2.4286   57.0858   -8.1820 C   0  0  0  0  0  0
   -1.7973   56.2329   -7.0658 C   0  0  0  0  0  0
   -0.8565   57.0454   -6.1740 C   0  0  0  0  0  0
   -1.5434   57.9820   -5.1497 C   0  0  0  0  0  0
   -1.8888   55.4529  -10.8544 C   0  0  0  0  0  0
   -1.3077   54.1844  -11.4566 C   0  0  0  0  0  0
   -2.7214   55.2936   -9.8444 N   0  0  0  0  0  0
   -5.1759   60.7670   -7.8145 O   0  0  0  0  0  0
   -4.1195   60.3112   -6.0561 O   0  0  0  0  0  0
   -4.8531   57.8814   -6.7881 O   0  0  0  0  0  0
   -5.0055   56.4419  -10.7758 O   0  0  0  0  0  0
   -3.1025   58.1577   -7.4902 O   0  0  0  0  0  0
   -2.7839   55.6874   -6.2046 O   0  0  0  0  0  0
   -0.1589   56.0750   -5.4262 O   0  0  0  0  0  0
   -2.1193   57.2393   -4.0862 O   0  0  0  0  0  0
   -1.6468   56.5848  -11.2769 O   0  0  0  0  0  0
   -2.9104   54.3933   -9.4843 H   0  0  0  0  0  0
   -4.1600   57.2053   -6.6599 H   0  0  0  0  0  0
   -4.7207   55.5097  -10.6969 H   0  0  0  0  0  0
   -2.6295   54.8351   -6.6675 H   0  0  0  0  0  0
    0.6002   55.8552   -5.9836 H   0  0  0  0  0  0
   -2.7580   57.9022   -3.7589 H   0  0  0  0  0  0
   -3.4155   59.8538   -5.6398 H   0  0  0  0  0  0
  1 13  2  0  0  0
  1 14  1  0  0  0
  2  1  1  0  0  0
  2  3  1  0  0  0
  2 15  1  0  0  0
  2 17  1  0  0  0
  3  4  1  0  0  0
  4  5  1  0  0  0
  4 16  1  0  0  0
  5  6  1  0  0  0
  5 12  1  0  0  0
  6  7  1  0  0  0
  6 17  1  0  0  0
  7  8  1  0  0  0
  7 18  1  0  0  0
  8  9  1  0  0  0
  8 19  1  0  0  0
  9 20  1  0  0  0
 10 11  1  0  0  0
 10 12  1  0  0  0
 10 21  2  0  0  0
 12 22  1  0  0  0
 14 28  1  0  0  0
 15 23  1  0  0  0
 16 24  1  0  0  0
 18 25  1  0  0  0
 19 26  1  0  0  0
 20 27  1  0  0  0
M  END
>  <CHROM.0>
46.50884494,76.77871617,69.38634596,15.36120781,-139.33870307,90.90898051
-62.17659873,147.93219436,-178.96149959,66.01603708

>  <CHROM.1>
14.24836496,-0.30236190,-128.37414010,-141.94778783,50.95362843,-177.43669194
75.92968485,104.10230682,72.95847331,87.97366236,-159.72682576,-2.99300073
57.26296483,-7.94018043,1.69843537,-0.75649140,1.12166122

>  <FORMUL>
      SIA    C11 H19 N1 O9

>  <HET>
 SIA  A 467      39

>  <HETNAM>
     SIA O-SIALIC ACID

>  <Name>
SIA.pdb

>  <RI>
0

>  <Rbt.Current_Directory>
/home/malgorzata/Desktop/rDOCK_IFD/Wyniki/12_neuraminidase

>  <Rbt.Executable>
rbdock ($Id: //depot/dev/client3/rdock/2013.1/src/exe/rbdock.cxx#4 $)

>  <Rbt.Library>
libRbt.so (2013.1, Build901 2013/11/27)

>  <Rbt.Parameter_File>
/home/malgorzata/Desktop/rDock_2013.1_src/data/scripts/soft_docking.prm

>  <Rbt.Receptor>
cavity.prm

>  <SCORE>
-57.0084

>  <SCORE.INTER>
-25.3986

>  <SCORE.INTER.CONST>
1

>  <SCORE.INTER.POLAR>
-6.28413

>  <SCORE.INTER.REPUL>
0.590699

>  <SCORE.INTER.ROT>
5

>  <SCORE.INTER.VDW>
-17.3861

>  <SCORE.INTER.norm>
-1.20946

>  <SCORE.INTRA>
-3.61687

>  <SCORE.INTRA.DIHEDRAL>
2.19399

>  <SCORE.INTRA.DIHEDRAL.0>
24.6845

>  <SCORE.INTRA.POLAR>
0.967721

>  <SCORE.INTRA.POLAR.0>
-0.967721

>  <SCORE.INTRA.REPUL>
0

>  <SCORE.INTRA.REPUL.0>
0

>  <SCORE.INTRA.VDW>
-7.34592

>  <SCORE.INTRA.VDW.0>
7.44847

>  <SCORE.INTRA.norm>
-0.172232

>  <SCORE.RESTR>
0.00486651

>  <SCORE.RESTR.CAVITY>
0.00486651

>  <SCORE.RESTR.norm>
0.000231739

>  <SCORE.SYSTEM>
-27.9978

>  <SCORE.SYSTEM.CONST>
0

>  <SCORE.SYSTEM.DIHEDRAL>
4.97293

>  <SCORE.SYSTEM.POLAR>
-7.3873

>  <SCORE.SYSTEM.REPUL>
0.232777

>  <SCORE.SYSTEM.VDW>
-6.5313

>  <SCORE.SYSTEM.norm>
-1.33323

>  <SCORE.heavy>
21

>  <SCORE.norm>
-2.71468

$$$$
SIA.pdb
  rDOCK(R)          3D
libRbt.so/2013.1/901 2013/11/27
 28 28  0  0  0  0  0  0  0  0999 V2000
   -1.3665   57.5080   -5.1672 C   0  0  0  0  0  0
   -2.5097   58.3544   -5.7330 C   0  0  0  0  0  0
   -2.6398   59.8714   -5.6861 C   0  0  0  0  0  0
   -3.5266   60.4231   -6.7919 C   0  0  0  0  0  0
   -4.5263   59.3894   -7.3032 C   0  0  0  0  0  0
   -3.7509   58.2065   -7.8921 C   0  0  0  0  0  0
   -4.6934   57.0648   -8.3161 C   0  0  0  0  0  0
   -3.9379   55.8822   -8.9254 C   0  0  0  0  0  0
   -4.8065   54.6646   -9.3269 C   0  0  0  0  0  0
   -4.9345   60.4753   -9.5390 C   0  0  0  0  0  0
   -6.0170   61.1429  -10.3708 C   0  0  0  0  0  0
   -5.2837   60.0827   -8.3296 N   0  0  0  0  0  0
   -1.0205   57.9006   -4.0375 O   0  0  0  0  0  0
   -0.6646   56.5994   -5.6488 O   0  0  0  0  0  0
   -3.4493   57.4895   -5.0905 O   0  0  0  0  0  0
   -4.2590   61.4920   -6.2398 O   0  0  0  0  0  0
   -2.8790   57.6173   -6.9049 O   0  0  0  0  0  0
   -5.4137   56.5448   -7.2100 O   0  0  0  0  0  0
   -3.3894   56.3953  -10.1185 O   0  0  0  0  0  0
   -6.1503   54.8353   -8.9032 O   0  0  0  0  0  0
   -3.7743   60.3190   -9.9233 O   0  0  0  0  0  0
   -6.2147   60.1858   -8.0155 H   0  0  0  0  0  0
   -3.2985   56.6319   -5.5328 H   0  0  0  0  0  0
   -4.8249   61.8419   -6.9566 H   0  0  0  0  0  0
   -6.2265   56.7373   -7.7266 H   0  0  0  0  0  0
   -2.5181   55.9788  -10.1703 H   0  0  0  0  0  0
   -6.4869   53.9355   -9.0808 H   0  0  0  0  0  0
   -0.6589   56.4524   -6.5742 H   0  0  0  0  0  0
  1 13  2  0  0  0
  1 14  1  0  0  0
  2  1  1  0  0  0
  2  3  1  0  0  0
  2 15  1  0  0  0
  2 17  1  0  0  0
  3  4  1  0  0  0
  4  5  1  0  0  0
  4 16  1  0  0  0
  5  6  1  0  0  0
  5 12  1  0  0  0
  6  7  1  0  0  0
  6 17  1  0  0  0
  7  8  1  0  0  0
  7 18  1  0  0  0
  8  9  1  0  0  0
  8 19  1  0  0  0
  9 20  1  0  0  0
 10 11  1  0  0  0
 10 12  1  0  0  0
 10 21  2  0  0  0
 12 22  1  0  0  0
 14 28  1  0  0  0
 15 23  1  0  0  0
 16 24  1  0  0  0
 18 25  1  0  0  0
 19 26  1  0  0  0
 20 27  1  0  0  0
M  END
>  <CHROM.0>
-177.14102022,-69.95378575,10.27678276,-147.60259402,-8.52329655,-171.36576403
-0.78661916,80.28653501,-173.45869195,57.08091768

>  <CHROM.1>
14.18698124,43.21184700,-63.72723266,179.90651686,71.35792472,179.17533013
177.60839990,124.72830420,-6.57407875,141.85954604,-169.83597951,-3.77414647
58.15314586,-7.49841395,-0.02405078,0.91317867,-3.02011356

>  <FORMUL>
      SIA    C11 H19 N1 O9

>  <HET>
 SIA  A 467      39

>  <HETNAM>
     SIA O-SIALIC ACID

>  <Name>
SIA.pdb

>  <RI>
0

>  <Rbt.Current_Directory>
/home/malgorzata/Desktop/rDOCK_IFD/Wyniki/12_neuraminidase

>  <Rbt.Executable>
rbdock ($Id: //depot/dev/client3/rdock/2013.1/src/exe/rbdock.cxx#4 $)

>  <Rbt.Library>
libRbt.so (2013.1, Build901 2013/11/27)

>  <Rbt.Parameter_File>
/home/malgorzata/Desktop/rDock_2013.1_src/data/scripts/soft_docking.prm

>  <Rbt.Receptor>
cavity.prm

>  <SCORE>
-60.4632

>  <SCORE.INTER>
-29.5681

>  <SCORE.INTER.CONST>
1

>  <SCORE.INTER.POLAR>
-6.16322

>  <SCORE.INTER.REPUL>
0.0953267

>  <SCORE.INTER.ROT>
5

>  <SCORE.INTER.VDW>
-19.4898

>  <SCORE.INTER.norm>
-1.408

>  <SCORE.INTRA>
-4.91096

>  <SCORE.INTRA.DIHEDRAL>
-0.383228

>  <SCORE.INTRA.DIHEDRAL.0>
24.6845

>  <SCORE.INTRA.POLAR>
0.967721

>  <SCORE.INTRA.POLAR.0>
-0.967721

>  <SCORE.INTRA.REPUL>
0

>  <SCORE.INTRA.REPUL.0>
0

>  <SCORE.INTRA.VDW>
-8.12457

>  <SCORE.INTRA.VDW.0>
7.44847

>  <SCORE.INTRA.norm>
-0.233855

>  <SCORE.RESTR>
0

>  <SCORE.RESTR.CAVITY>
0

>  <SCORE.RESTR.norm>
0

>  <SCORE.SYSTEM>
-25.9841

>  <SCORE.SYSTEM.CONST>
0

>  <SCORE.SYSTEM.DIHEDRAL>
9.66568

>  <SCORE.SYSTEM.POLAR>
-7.00939

>  <SCORE.SYSTEM.REPUL>
0.0340601

>  <SCORE.SYSTEM.VDW>
-7.15533

>  <SCORE.SYSTEM.norm>
-1.23734

>  <SCORE.heavy>
21

>  <SCORE.norm>
-2.8792

$$$$
SIA.pdb
  rDOCK(R)          3D
libRbt.so/2013.1/901 2013/11/27
 28 28  0  0  0  0  0  0  0  0999 V2000
   -2.8688   58.2122   -4.9911 C   0  0  0  0  0  0
   -2.6561   57.2616   -6.1719 C   0  0  0  0  0  0
   -1.7202   56.0609   -6.2276 C   0  0  0  0  0  0
   -2.1499   55.0236   -7.2536 C   0  0  0  0  0  0
   -3.0043   55.6269   -8.3652 C   0  0  0  0  0  0
   -4.2798   56.2054   -7.7443 C   0  0  0  0  0  0
   -5.1355   56.9439   -8.7903 C   0  0  0  0  0  0
   -6.4715   56.2445   -9.0481 C   0  0  0  0  0  0
   -7.6062   57.1440   -9.5972 C   0  0  0  0  0  0
   -4.0146   53.4191   -9.0355 C   0  0  0  0  0  0
   -4.1640   52.4754  -10.2173 C   0  0  0  0  0  0
   -3.3082   54.5127   -9.2449 N   0  0  0  0  0  0
   -2.0062   58.0479   -4.1085 O   0  0  0  0  0  0
   -3.7731   59.0179   -4.7026 O   0  0  0  0  0  0
   -2.4981   58.3907   -7.0344 O   0  0  0  0  0  0
   -0.9764   54.5140   -7.8427 O   0  0  0  0  0  0
   -3.9645   57.2056   -6.7534 O   0  0  0  0  0  0
   -5.4545   58.2602   -8.3683 O   0  0  0  0  0  0
   -6.1835   55.3012  -10.0555 O   0  0  0  0  0  0
   -8.1419   56.6121  -10.7990 O   0  0  0  0  0  0
   -4.4840   53.1969   -7.9182 O   0  0  0  0  0  0
   -2.9412   54.7118  -10.1402 H   0  0  0  0  0  0
   -2.4102   57.9834   -7.9177 H   0  0  0  0  0  0
   -0.4826   54.0585   -7.1320 H   0  0  0  0  0  0
   -4.5411   58.5021   -8.6361 H   0  0  0  0  0  0
   -6.9486   54.7097  -10.0439 H   0  0  0  0  0  0
   -8.7515   55.9494  -10.4200 H   0  0  0  0  0  0
   -4.6650   58.7318   -4.6772 H   0  0  0  0  0  0
  1 13  2  0  0  0
  1 14  1  0  0  0
  2  1  1  0  0  0
  2  3  1  0  0  0
  2 15  1  0  0  0
  2 17  1  0  0  0
  3  4  1  0  0  0
  4  5  1  0  0  0
  4 16  1  0  0  0
  5  6  1  0  0  0
  5 12  1  0  0  0
  6  7  1  0  0  0
  6 17  1  0  0  0
  7  8  1  0  0  0
  7 18  1  0  0  0
  8  9  1  0  0  0
  8 19  1  0  0  0
  9 20  1  0  0  0
 10 11  1  0  0  0
 10 12  1  0  0  0
 10 21  2  0  0  0
 12 22  1  0  0  0
 14 28  1  0  0  0
 15 23  1  0  0  0
 16 24  1  0  0  0
 18 25  1  0  0  0
 19 26  1  0  0  0
 20 27  1  0  0  0
M  END
>  <CHROM.0>
103.70819503,-141.14900551,40.27398941,-92.59181772,-135.07333005,24.04634214
-24.64317049,81.38319955,-97.32438055,-28.96977114

>  <CHROM.1>
53.47474395,11.73233929,-175.74894090,64.19337235,64.96522256,113.73045839
156.04063946,78.14166425,125.45874723,165.11978773,81.74221520,-4.07068988
56.19978522,-7.84031245,0.80470239,-0.55060557,0.59361284

>  <FORMUL>
      SIA    C11 H19 N1 O9

>  <HET>
 SIA  A 467      39

>  <HETNAM>
     SIA O-SIALIC ACID

>  <Name>
SIA.pdb

>  <RI>
0

>  <Rbt.Current_Directory>
/home/malgorzata/Desktop/rDOCK_IFD/Wyniki/12_neuraminidase

>  <Rbt.Executable>
rbdock ($Id: //depot/dev/client3/rdock/2013.1/src/exe/rbdock.cxx#4 $)

>  <Rbt.Library>
libRbt.so (2013.1, Build901 2013/11/27)

>  <Rbt.Parameter_File>
/home/malgorzata/Desktop/rDock_2013.1_src/data/scripts/soft_docking.prm

>  <Rbt.Receptor>
cavity.prm

>  <SCORE>
-56.2372

>  <SCORE.INTER>
-34.1765

>  <SCORE.INTER.CONST>
1

>  <SCORE.INTER.POLAR>
-9.05058

>  <SCORE.INTER.REPUL>
1.42339

>  <SCORE.INTER.ROT>
5

>  <SCORE.INTER.VDW>
-20.9215

>  <SCORE.INTER.norm>
-1.62745

>  <SCORE.INTRA>
-2.90722

>  <SCORE.INTRA.DIHEDRAL>
10.8613

>  <SCORE.INTRA.DIHEDRAL.0>
24.6845

>  <SCORE.INTRA.POLAR>
0.967721

>  <SCORE.INTRA.POLAR.0>
-0.967721

>  <SCORE.INTRA.REPUL>
0

>  <SCORE.INTRA.REPUL.0>
0

>  <SCORE.INTRA.VDW>
-8.36975

>  <SCORE.INTRA.VDW.0>
7.44847

>  <SCORE.INTRA.norm>
-0.138439

>  <SCORE.RESTR>
0

>  <SCORE.RESTR.CAVITY>
0

>  <SCORE.RESTR.norm>
0

>  <SCORE.SYSTEM>
-19.1534

>  <SCORE.SYSTEM.CONST>
0

>  <SCORE.SYSTEM.DIHEDRAL>
20.0164

>  <SCORE.SYSTEM.POLAR>
-7.39442

>  <SCORE.SYSTEM.REPUL>
0.126768

>  <SCORE.SYSTEM.VDW>
-4.65444

>  <SCORE.SYSTEM.norm>
-0.912067

>  <SCORE.heavy>
21

>  <SCORE.norm>
-2.67796

$$$$
SIA.pdb
  rDOCK(R)          3D
libRbt.so/2013.1/901 2013/11/27
 28 28  0  0  0  0  0  0  0  0999 V2000
   -1.2551   59.3968   -4.3388 C   0  0  0  0  0  0
   -2.4626   59.4871   -5.2753 C   0  0  0  0  0  0
   -3.0992   60.7533   -5.8339 C   0  0  0  0  0  0
   -3.8553   60.5118   -7.1314 C   0  0  0  0  0  0
   -4.3148   59.0633   -7.2736 C   0  0  0  0  0  0
   -3.0799   58.1567   -7.2934 C   0  0  0  0  0  0
   -3.4700   56.6669   -7.3090 C   0  0  0  0  0  0
   -2.8077   55.9038   -8.4577 C   0  0  0  0  0  0
   -1.2694   55.7515   -8.3647 C   0  0  0  0  0  0
   -6.3035   58.9133   -8.8122 C   0  0  0  0  0  0
   -6.6916   58.9483  -10.2810 C   0  0  0  0  0  0
   -5.0170   59.0204   -8.5436 N   0  0  0  0  0  0
   -0.6279   60.4714   -4.2938 O   0  0  0  0  0  0
   -0.7323   58.4535   -3.7167 O   0  0  0  0  0  0
   -3.1753   58.5903   -4.4200 O   0  0  0  0  0  0
   -5.0046   61.3253   -7.0977 O   0  0  0  0  0  0
   -2.2991   58.3207   -6.0913 O   0  0  0  0  0  0
   -3.0698   56.0102   -6.1168 O   0  0  0  0  0  0
   -3.3461   54.6038   -8.3700 O   0  0  0  0  0  0
   -0.8642   55.4747   -7.0330 O   0  0  0  0  0  0
   -7.1111   58.7624   -7.8939 O   0  0  0  0  0  0
   -4.3607   59.1596   -9.2688 H   0  0  0  0  0  0
   -2.7418   57.7317   -4.5897 H   0  0  0  0  0  0
   -5.4584   61.1320   -6.2532 H   0  0  0  0  0  0
   -3.9888   55.6672   -6.0695 H   0  0  0  0  0  0
   -2.6903   54.1162   -7.8529 H   0  0  0  0  0  0
   -1.1684   56.2969   -6.6017 H   0  0  0  0  0  0
    0.1913   58.4510   -3.5589 H   0  0  0  0  0  0
  1 13  2  0  0  0
  1 14  1  0  0  0
  2  1  1  0  0  0
  2  3  1  0  0  0
  2 15  1  0  0  0
  2 17  1  0  0  0
  3  4  1  0  0  0
  4  5  1  0  0  0
  4 16  1  0  0  0
  5  6  1  0  0  0
  5 12  1  0  0  0
  6  7  1  0  0  0
  6 17  1  0  0  0
  7  8  1  0  0  0
  7 18  1  0  0  0
  8  9  1  0  0  0
  8 19  1  0  0  0
  9 20  1  0  0  0
 10 11  1  0  0  0
 10 12  1  0  0  0
 10 21  2  0  0  0
 12 22  1  0  0  0
 14 28  1  0  0  0
 15 23  1  0  0  0
 16 24  1  0  0  0
 18 25  1  0  0  0
 19 26  1  0  0  0
 20 27  1  0  0  0
M  END
>  <CHROM.0>
-160.47765574,54.07551037,52.93803289,124.92930246,-6.09662213,-69.53442792
41.40802451,167.98086872,-108.15157193,-94.89154372

>  <CHROM.1>
148.43936295,-15.11848922,-72.46969236,-52.46740907,-107.74771842,126.68861753
67.25016586,130.04750871,40.48133752,-95.14731215,-62.63078410,-3.30051645
58.26481386,-6.81442441,0.28722552,-0.65202099,0.51845686

>  <FORMUL>
      SIA    C11 H19 N1 O9

>  <HET>
 SIA  A 467      39

>  <HETNAM>
     SIA O-SIALIC ACID

>  <Name>
SIA.pdb

>  <RI>
0

>  <Rbt.Current_Directory>
/home/malgorzata/Desktop/rDOCK_IFD/Wyniki/12_neuraminidase

>  <Rbt.Executable>
rbdock ($Id: //depot/dev/client3/rdock/2013.1/src/exe/rbdock.cxx#4 $)

>  <Rbt.Library>
libRbt.so (2013.1, Build901 2013/11/27)

>  <Rbt.Parameter_File>
/home/malgorzata/Desktop/rDock_2013.1_src/data/scripts/soft_docking.prm

>  <Rbt.Receptor>
cavity.prm

>  <SCORE>
-58.4478

>  <SCORE.INTER>
-31.7307

>  <SCORE.INTER.CONST>
1

>  <SCORE.INTER.POLAR>
-7.50456

>  <SCORE.INTER.REPUL>
0.099088

>  <SCORE.INTER.ROT>
5

>  <SCORE.INTER.VDW>
-17.1106

>  <SCORE.INTER.norm>
-1.51099

>  <SCORE.INTRA>
-0.933407

>  <SCORE.INTRA.DIHEDRAL>
3.20174

>  <SCORE.INTRA.DIHEDRAL.0>
24.6845

>  <SCORE.INTRA.POLAR>
0.786131

>  <SCORE.INTRA.POLAR.0>
-0.967721

>  <SCORE.INTRA.REPUL>
0

>  <SCORE.INTRA.REPUL.0>
0

>  <SCORE.INTRA.VDW>
-4.2466

>  <SCORE.INTRA.VDW.0>
7.44847

>  <SCORE.INTRA.norm>
-0.044448

>  <SCORE.RESTR>
0.0516469

>  <SCORE.RESTR.CAVITY>
0.0516469

>  <SCORE.RESTR.norm>
0.00245938

>  <SCORE.SYSTEM>
-25.8353

>  <SCORE.SYSTEM.CONST>
0

>  <SCORE.SYSTEM.DIHEDRAL>
8.81516

>  <SCORE.SYSTEM.POLAR>
-7.79166

>  <SCORE.SYSTEM.REPUL>
0.477104

>  <SCORE.SYSTEM.VDW>
-6.13677

>  <SCORE.SYSTEM.norm>
-1.23025

>  <SCORE.heavy>
21

>  <SCORE.norm>
-2.78323

$$$$
SIA.pdb
  rDOCK(R)          3D
libRbt.so/2013.1/901 2013/11/27
 28 28  0  0  0  0  0  0  0  0999 V2000
   -7.4932   57.5494   -8.4438 C   0  0  0  0  0  0
   -6.4179   56.4630   -8.3599 C   0  0  0  0  0  0
   -6.0799   55.4214   -9.4189 C   0  0  0  0  0  0
   -4.6552   54.9017   -9.3031 C   0  0  0  0  0  0
   -4.0968   55.0503   -7.8905 C   0  0  0  0  0  0
   -4.0668   56.5389   -7.5291 C   0  0  0  0  0  0
   -3.6313   56.7594   -6.0685 C   0  0  0  0  0  0
   -2.1334   57.0450   -5.9445 C   0  0  0  0  0  0
   -1.6788   58.4560   -6.3924 C   0  0  0  0  0  0
   -2.1055   53.7044   -7.1370 C   0  0  0  0  0  0
   -0.7071   53.2873   -7.5611 C   0  0  0  0  0  0
   -2.7548   54.5013   -7.9629 N   0  0  0  0  0  0
   -8.6055   57.0726   -8.7362 O   0  0  0  0  0  0
   -7.4501   58.7923   -8.3848 O   0  0  0  0  0  0
   -6.9036   56.1020   -7.0647 O   0  0  0  0  0  0
   -4.6906   53.5270   -9.6082 O   0  0  0  0  0  0
   -5.3859   57.1175   -7.6118 O   0  0  0  0  0  0
   -4.2941   57.8717   -5.4886 O   0  0  0  0  0  0
   -1.8747   56.9599   -4.5612 O   0  0  0  0  0  0
   -1.4050   58.4851   -7.7847 O   0  0  0  0  0  0
   -2.6284   53.3655   -6.0740 O   0  0  0  0  0  0
   -2.3546   54.7664   -8.8264 H   0  0  0  0  0  0
   -6.1682   55.5792   -6.6908 H   0  0  0  0  0  0
   -4.9376   53.0645   -8.7827 H   0  0  0  0  0  0
   -4.5458   57.2641   -4.7592 H   0  0  0  0  0  0
   -0.9111   57.0167   -4.5023 H   0  0  0  0  0  0
   -0.5478   58.9536   -7.7669 H   0  0  0  0  0  0
   -6.7763   59.2147   -7.8891 H   0  0  0  0  0  0
  1 13  2  0  0  0
  1 14  1  0  0  0
  2  1  1  0  0  0
  2  3  1  0  0  0
  2 15  1  0  0  0
  2 17  1  0  0  0
  3  4  1  0  0  0
  4  5  1  0  0  0
  4 16  1  0  0  0
  5  6  1  0  0  0
  5 12  1  0  0  0
  6  7  1  0  0  0
  6 17  1  0  0  0
  7  8  1  0  0  0
  7 18  1  0  0  0
  8  9  1  0  0  0
  8 19  1  0  0  0
  9 20  1  0  0  0
 10 11  1  0  0  0
 10 12  1  0  0  0
 10 21  2  0  0  0
 12 22  1  0  0  0
 14 28  1  0  0  0
 15 23  1  0  0  0
 16 24  1  0  0  0
 18 25  1  0  0  0
 19 26  1  0  0  0
 20 27  1  0  0  0
M  END
>  <CHROM.0>
55.09127429,77.24745695,55.21633564,-44.70788844,-68.11127875,128.82261455
-56.17314509,68.73404692,-160.15408502,16.73932594

>  <CHROM.1>
-28.89694166,52.72085561,-163.09470750,-84.08924768,-136.84214034,95.30849284
74.26208591,127.57705130,-87.09563017,172.29439716,-133.26317105,-4.23765164
56.17327151,-7.46073525,-3.03502204,0.40602237,-2.71876561

>  <FORMUL>
      SIA    C11 H19 N1 O9

>  <HET>
 SIA  A 467      39

>  <HETNAM>
     SIA O-SIALIC ACID

>  <Name>
SIA.pdb

>  <RI>
0

>  <Rbt.Current_Directory>
/home/malgorzata/Desktop/rDOCK_IFD/Wyniki/12_neuraminidase

>  <Rbt.Executable>
rbdock ($Id: //depot/dev/client3/rdock/2013.1/src/exe/rbdock.cxx#4 $)

>  <Rbt.Library>
libRbt.so (2013.1, Build901 2013/11/27)

>  <Rbt.Parameter_File>
/home/malgorzata/Desktop/rDock_2013.1_src/data/scripts/soft_docking.prm

>  <Rbt.Receptor>
cavity.prm

>  <SCORE>
-64.4406

>  <SCORE.INTER>
-32.046

>  <SCORE.INTER.CONST>
1

>  <SCORE.INTER.POLAR>
-7.60745

>  <SCORE.INTER.REPUL>
0.729252

>  <SCORE.INTER.ROT>
5

>  <SCORE.INTER.VDW>
-20.2269

>  <SCORE.INTER.norm>
-1.526

>  <SCORE.INTRA>
-3.87226

>  <SCORE.INTRA.DIHEDRAL>
6.10317

>  <SCORE.INTRA.DIHEDRAL.0>
24.6845

>  <SCORE.INTRA.POLAR>
0.967721

>  <SCORE.INTRA.POLAR.0>
-0.967721

>  <SCORE.INTRA.REPUL>
0

>  <SCORE.INTRA.REPUL.0>
0

>  <SCORE.INTRA.VDW>
-8.38314

>  <SCORE.INTRA.VDW.0>
7.44847

>  <SCORE.INTRA.norm>
-0.184393

>  <SCORE.RESTR>
0.0531128

>  <SCORE.RESTR.CAVITY>
0.0531128

>  <SCORE.RESTR.norm>
0.00252918

>  <SCORE.SYSTEM>
-28.5755

>  <SCORE.SYSTEM.CONST>
0

>  <SCORE.SYSTEM.DIHEDRAL>
4.50285

>  <SCORE.SYSTEM.POLAR>
-7.08248

>  <SCORE.SYSTEM.REPUL>
0.0340601

>  <SCORE.SYSTEM.VDW>
-6.91678

>  <SCORE.SYSTEM.norm>
-1.36074

>  <SCORE.heavy>
21

>  <SCORE.norm>
-3.0686

$$$$
SIA.pdb
  rDOCK(R)          3D
libRbt.so/2013.1/901 2013/11/27
 28 28  0  0  0  0  0  0  0  0999 V2000
   -1.7890   54.1985   -9.1772 C   0  0  0  0  0  0
   -1.6638   55.4167   -8.2587 C   0  0  0  0  0  0
   -0.3879   56.1650   -7.8943 C   0  0  0  0  0  0
   -0.6461   57.6039   -7.4743 C   0  0  0  0  0  0
   -2.0629   57.8080   -6.9448 C   0  0  0  0  0  0
   -3.0567   57.4772   -8.0630 C   0  0  0  0  0  0
   -4.5126   57.5396   -7.5648 C   0  0  0  0  0  0
   -5.5027   56.9813   -8.5889 C   0  0  0  0  0  0
   -6.3974   55.8182   -8.0940 C   0  0  0  0  0  0
   -2.2481   59.7970   -5.4105 C   0  0  0  0  0  0
   -2.2319   61.3165   -5.4059 C   0  0  0  0  0  0
   -2.1257   59.2135   -6.5867 N   0  0  0  0  0  0
   -2.0470   54.5316  -10.3488 O   0  0  0  0  0  0
   -1.7903   52.9718   -8.9642 O   0  0  0  0  0  0
   -2.4569   54.7422   -7.2791 O   0  0  0  0  0  0
    0.2496   57.8960   -6.4272 O   0  0  0  0  0  0
   -2.8829   56.1212   -8.5244 O   0  0  0  0  0  0
   -4.6934   56.7744   -6.3839 O   0  0  0  0  0  0
   -6.3650   58.0615   -8.8663 O   0  0  0  0  0  0
   -5.6675   54.6023   -8.0375 O   0  0  0  0  0  0
   -2.3974   59.1106   -4.3982 O   0  0  0  0  0  0
   -1.9876   59.7510   -7.4039 H   0  0  0  0  0  0
   -1.8054   54.5086   -6.5901 H   0  0  0  0  0  0
   -0.2902   58.2310   -5.6838 H   0  0  0  0  0  0
   -4.6190   57.6231   -5.8954 H   0  0  0  0  0  0
   -7.1492   57.6403   -9.2442 H   0  0  0  0  0  0
   -5.5552   54.4413   -8.9946 H   0  0  0  0  0  0
   -1.7775   52.6490   -8.0846 H   0  0  0  0  0  0
  1 13  2  0  0  0
  1 14  1  0  0  0
  2  1  1  0  0  0
  2  3  1  0  0  0
  2 15  1  0  0  0
  2 17  1  0  0  0
  3  4  1  0  0  0
  4  5  1  0  0  0
  4 16  1  0  0  0
  5  6  1  0  0  0
  5 12  1  0  0  0
  6  7  1  0  0  0
  6 17  1  0  0  0
  7  8  1  0  0  0
  7 18  1  0  0  0
  8  9  1  0  0  0
  8 19  1  0  0  0
  9 20  1  0  0  0
 10 11  1  0  0  0
 10 12  1  0  0  0
 10 21  2  0  0  0
 12 22  1  0  0  0
 14 28  1  0  0  0
 15 23  1  0  0  0
 16 24  1  0  0  0
 18 25  1  0  0  0
 19 26  1  0  0  0
 20 27  1  0  0  0
M  END
>  <CHROM.0>
42.43243886,-63.92866190,42.54411546,-121.11353811,98.86157400,58.60087949
172.50581997,89.61860986,-168.52962000,94.58810980

>  <CHROM.1>
5.42223946,-93.47434459,107.30506280,-126.42119296,-113.16839268,-170.08476071
123.01914078,99.11553848,-76.05325109,-160.37245873,-70.09460515,-2.92490318
56.82123967,-7.55043292,-1.80845137,-0.12548973,0.53504299

>  <FORMUL>
      SIA    C11 H19 N1 O9

>  <HET>
 SIA  A 467      39

>  <HETNAM>
     SIA O-SIALIC ACID

>  <Name>
SIA.pdb

>  <RI>
0

>  <Rbt.Current_Directory>
/home/malgorzata/Desktop/rDOCK_IFD/Wyniki/12_neuraminidase

>  <Rbt.Executable>
rbdock ($Id: //depot/dev/client3/rdock/2013.1/src/exe/rbdock.cxx#4 $)

>  <Rbt.Library>
libRbt.so (2013.1, Build901 2013/11/27)

>  <Rbt.Parameter_File>
/home/malgorzata/Desktop/rDock_2013.1_src/data/scripts/soft_docking.prm

>  <Rbt.Receptor>
cavity.prm

>  <SCORE>
-46.1947

>  <SCORE.INTER>
-15.5403

>  <SCORE.INTER.CONST>
1

>  <SCORE.INTER.POLAR>
-4.09258

>  <SCORE.INTER.REPUL>
0.793364

>  <SCORE.INTER.ROT>
5

>  <SCORE.INTER.VDW>
-15.9924

>  <SCORE.INTER.norm>
-0.740015

>  <SCORE.INTRA>
-0.945998

>  <SCORE.INTRA.DIHEDRAL>
4.03831

>  <SCORE.INTRA.DIHEDRAL.0>
24.6845

>  <SCORE.INTRA.POLAR>
0.967721

>  <SCORE.INTRA.POLAR.0>
-0.967721

>  <SCORE.INTRA.REPUL>
0

>  <SCORE.INTRA.REPUL.0>
0

>  <SCORE.INTRA.VDW>
-5.04391

>  <SCORE.INTRA.VDW.0>
7.44847

>  <SCORE.INTRA.norm>
-0.0450475

>  <SCORE.RESTR>
0.267948

>  <SCORE.RESTR.CAVITY>
0.267948

>  <SCORE.RESTR.norm>
0.0127595

>  <SCORE.SYSTEM>
-29.9763

>  <SCORE.SYSTEM.CONST>
0

>  <SCORE.SYSTEM.DIHEDRAL>
5.43933

>  <SCORE.SYSTEM.POLAR>
-7.4341

>  <SCORE.SYSTEM.REPUL>
0.0340601

>  <SCORE.SYSTEM.VDW>
-7.59034

>  <SCORE.SYSTEM.norm>
-1.42744

>  <SCORE.heavy>
21

>  <SCORE.norm>
-2.19975

$$$$
SIA.pdb
  rDOCK(R)          3D
libRbt.so/2013.1/901 2013/11/27
 28 28  0  0  0  0  0  0  0  0999 V2000
   -2.4004   57.5735   -5.1122 C   0  0  0  0  0  0
   -2.0941   56.7879   -6.3898 C   0  0  0  0  0  0
   -0.9215   55.8455   -6.6297 C   0  0  0  0  0  0
   -1.2035   54.8149   -7.7122 C   0  0  0  0  0  0
   -2.2751   55.2828   -8.6932 C   0  0  0  0  0  0
   -3.5820   55.5013   -7.9242 C   0  0  0  0  0  0
   -4.6791   56.0951   -8.8273 C   0  0  0  0  0  0
   -5.4571   55.0168   -9.5839 C   0  0  0  0  0  0
   -6.6765   54.4201   -8.8387 C   0  0  0  0  0  0
   -2.3874   54.2026  -10.9659 C   0  0  0  0  0  0
   -2.5050   52.8503  -11.6490 C   0  0  0  0  0  0
   -2.4036   54.1962   -9.6473 N   0  0  0  0  0  0
   -2.0455   56.9507   -4.0942 O   0  0  0  0  0  0
   -3.0155   58.6341   -4.8951 O   0  0  0  0  0  0
   -2.2786   57.9830   -7.1522 O   0  0  0  0  0  0
   -0.0078   54.6373   -8.4353 O   0  0  0  0  0  0
   -3.4061   56.4719   -6.8713 O   0  0  0  0  0  0
   -5.6393   56.8192   -8.0747 O   0  0  0  0  0  0
   -5.9657   55.6831  -10.7174 O   0  0  0  0  0  0
   -7.3103   53.4181   -9.6189 O   0  0  0  0  0  0
   -2.3116   55.2722  -11.5729 O   0  0  0  0  0  0
   -2.4461   53.3448   -9.1481 H   0  0  0  0  0  0
   -1.3678   58.2233   -7.4102 H   0  0  0  0  0  0
    0.5915   54.1207   -7.8605 H   0  0  0  0  0  0
   -4.9874   57.5537   -8.0640 H   0  0  0  0  0  0
   -5.1796   55.8655  -11.2505 H   0  0  0  0  0  0
   -7.8914   53.0306   -8.9358 H   0  0  0  0  0  0
   -3.3230   59.1526   -5.6125 H   0  0  0  0  0  0
  1 13  2  0  0  0
  1 14  1  0  0  0
  2  1  1  0  0  0
  2  3  1  0  0  0
  2 15  1  0  0  0
  2 17  1  0  0  0
  3  4  1  0  0  0
  4  5  1  0  0  0
  4 16  1  0  0  0
  5  6  1  0  0  0
  5 12  1  0  0  0
  6  7  1  0  0  0
  6 17  1  0  0  0
  7  8  1  0  0  0
  7 18  1  0  0  0
  8  9  1  0  0  0
  8 19  1  0  0  0
  9 20  1  0  0  0
 10 11  1  0  0  0
 10 12  1  0  0  0
 10 21  2  0  0  0
 12 22  1  0  0  0
 14 28  1  0  0  0
 15 23  1  0  0  0
 16 24  1  0  0  0
 18 25  1  0  0  0
 19 26  1  0  0  0
 20 27  1  0  0  0
M  END
>  <CHROM.0>
-51.36537325,176.25221116,16.81716781,172.14093102,-3.29024808,86.78653706
-13.49734114,-35.05188742,-163.30908264,-96.68722356

>  <CHROM.1>
-6.20419510,-32.93620671,106.89564142,73.66845254,-129.79842429,86.32894596
87.59424545,79.56321433,-179.06543692,69.27354852,167.63578958,-3.30101120
55.66440039,-8.26181650,1.13183392,-0.08963655,0.97617949

>  <FORMUL>
      SIA    C11 H19 N1 O9

>  <HET>
 SIA  A 467      39

>  <HETNAM>
     SIA O-SIALIC ACID

>  <Name>
SIA.pdb

>  <RI>
0

>  <Rbt.Current_Directory>
/home/malgorzata/Desktop/rDOCK_IFD/Wyniki/12_neuraminidase

>  <Rbt.Executable>
rbdock ($Id: //depot/dev/client3/rdock/2013.1/src/exe/rbdock.cxx#4 $)

>  <Rbt.Library>
libRbt.so (2013.1, Build901 2013/11/27)

>  <Rbt.Parameter_File>
/home/malgorzata/Desktop/rDock_2013.1_src/data/scripts/soft_docking.prm

>  <Rbt.Receptor>
cavity.prm

>  <SCORE>
-60.9092

>  <SCORE.INTER>
-27.7698

>  <SCORE.INTER.CONST>
1

>  <SCORE.INTER.POLAR>
-6.1124

>  <SCORE.INTER.REPUL>
0.657466

>  <SCORE.INTER.ROT>
5

>  <SCORE.INTER.VDW>
-20.675

>  <SCORE.INTER.norm>
-1.32237

>  <SCORE.INTRA>
-7.22152

>  <SCORE.INTRA.DIHEDRAL>
-8.75854

>  <SCORE.INTRA.DIHEDRAL.0>
24.6845

>  <SCORE.INTRA.POLAR>
0.967721

>  <SCORE.INTRA.POLAR.0>
-0.967721

>  <SCORE.INTRA.REPUL>
0

>  <SCORE.INTRA.REPUL.0>
0

>  <SCORE.INTRA.VDW>
-8.76007

>  <SCORE.INTRA.VDW.0>
7.44847

>  <SCORE.INTRA.norm>
-0.343882

>  <SCORE.RESTR>
0

>  <SCORE.RESTR.CAVITY>
0

>  <SCORE.RESTR.norm>
0

>  <SCORE.SYSTEM>
-25.9179

>  <SCORE.SYSTEM.CONST>
0

>  <SCORE.SYSTEM.DIHEDRAL>
9.11037

>  <SCORE.SYSTEM.POLAR>
-7.18794

>  <SCORE.SYSTEM.REPUL>
0.0340601

>  <SCORE.SYSTEM.VDW>
-6.20438

>  <SCORE.SYSTEM.norm>
-1.23419

>  <SCORE.heavy>
21

>  <SCORE.norm>
-2.90044

$$$$
SIA.pdb
  rDOCK(R)          3D
libRbt.so/2013.1/901 2013/11/27
 28 28  0  0  0  0  0  0  0  0999 V2000
   -5.7282   56.6955   -8.6908 C   0  0  0  0  0  0
   -4.3292   56.9060   -8.1062 C   0  0  0  0  0  0
   -3.0255   56.2916   -8.5996 C   0  0  0  0  0  0
   -1.8033   57.1121   -8.2169 C   0  0  0  0  0  0
   -2.0499   57.9797   -6.9856 C   0  0  0  0  0  0
   -3.1784   58.9673   -7.2997 C   0  0  0  0  0  0
   -3.5695   59.7945   -6.0608 C   0  0  0  0  0  0
   -4.5071   60.9528   -6.4067 C   0  0  0  0  0  0
   -5.9554   60.5554   -6.7843 C   0  0  0  0  0  0
   -0.1637   58.9739   -5.6446 C   0  0  0  0  0  0
    1.1761   59.6757   -5.7925 C   0  0  0  0  0  0
   -0.7937   58.6727   -6.7632 N   0  0  0  0  0  0
   -5.8360   57.2095   -9.8197 O   0  0  0  0  0  0
   -6.7797   56.2188   -8.2247 O   0  0  0  0  0  0
   -4.8498   56.6409   -6.8015 O   0  0  0  0  0  0
   -0.7763   56.2013   -7.9013 O   0  0  0  0  0  0
   -4.3853   58.2709   -7.6739 O   0  0  0  0  0  0
   -4.2549   59.0053   -5.1016 O   0  0  0  0  0  0
   -4.5934   61.7005   -5.2146 O   0  0  0  0  0  0
   -6.8707   60.9426   -5.7710 O   0  0  0  0  0  0
   -0.6831   58.7115   -4.5586 O   0  0  0  0  0  0
   -0.3809   58.8613   -7.6406 H   0  0  0  0  0  0
   -4.0504   56.4219   -6.2849 H   0  0  0  0  0  0
    0.0684   56.6738   -8.0419 H   0  0  0  0  0  0
   -4.3224   59.8253   -4.5651 H   0  0  0  0  0  0
   -4.6407   62.6171   -5.5195 H   0  0  0  0  0  0
   -7.7062   60.8463   -6.2683 H   0  0  0  0  0  0
   -6.7764   55.8140   -7.3797 H   0  0  0  0  0  0
  1 13  2  0  0  0
  1 14  1  0  0  0
  2  1  1  0  0  0
  2  3  1  0  0  0
  2 15  1  0  0  0
  2 17  1  0  0  0
  3  4  1  0  0  0
  4  5  1  0  0  0
  4 16  1  0  0  0
  5  6  1  0  0  0
  5 12  1  0  0  0
  6  7  1  0  0  0
  6 17  1  0  0  0
  7  8  1  0  0  0
  7 18  1  0  0  0
  8  9  1  0  0  0
  8 19  1  0  0  0
  9 20  1  0  0  0
 10 11  1  0  0  0
 10 12  1  0  0  0
 10 21  2  0  0  0
 12 22  1  0  0  0
 14 28  1  0  0  0
 15 23  1  0  0  0
 16 24  1  0  0  0
 18 25  1  0  0  0
 19 26  1  0  0  0
 20 27  1  0  0  0
M  END
>  <CHROM.0>
-67.55733487,-71.74987205,59.27558717,21.74980736,-157.59010088,-96.66403707
154.29802587,-178.87243116,-155.04541890,-105.71930061

>  <CHROM.1>
-6.98081133,-68.19915154,161.08406569,155.64947476,-141.12309224,169.60202677
71.70298927,-178.89034758,109.77823049,143.84473679,165.37497844,-3.52874155
58.46392603,-6.93729650,-2.90781980,-0.17516485,0.61238468

>  <FORMUL>
      SIA    C11 H19 N1 O9

>  <HET>
 SIA  A 467      39

>  <HETNAM>
     SIA O-SIALIC ACID

>  <Name>
SIA.pdb

>  <RI>
0

>  <Rbt.Current_Directory>
/home/malgorzata/Desktop/rDOCK_IFD/Wyniki/12_neuraminidase

>  <Rbt.Executable>
rbdock ($Id: //depot/dev/client3/rdock/2013.1/src/exe/rbdock.cxx#4 $)

>  <Rbt.Library>
libRbt.so (2013.1, Build901 2013/11/27)

>  <Rbt.Parameter_File>
/home/malgorzata/Desktop/rDock_2013.1_src/data/scripts/soft_docking.prm

>  <Rbt.Receptor>
cavity.prm

>  <SCORE>
-56.2721

>  <SCORE.INTER>
-30.8575

>  <SCORE.INTER.CONST>
1

>  <SCORE.INTER.POLAR>
-8.24189

>  <SCORE.INTER.REPUL>
0.273672

>  <SCORE.INTER.ROT>
5

>  <SCORE.INTER.VDW>
-14.6034

>  <SCORE.INTER.norm>
-1.4694

>  <SCORE.INTRA>
-3.5319

>  <SCORE.INTRA.DIHEDRAL>
-3.40299

>  <SCORE.INTRA.DIHEDRAL.0>
24.6845

>  <SCORE.INTRA.POLAR>
0.967721

>  <SCORE.INTRA.POLAR.0>
-0.967721

>  <SCORE.INTRA.REPUL>
0

>  <SCORE.INTRA.REPUL.0>
0

>  <SCORE.INTRA.VDW>
-6.14155

>  <SCORE.INTRA.VDW.0>
7.44847

>  <SCORE.INTRA.norm>
-0.168186

>  <SCORE.RESTR>
0.0126349

>  <SCORE.RESTR.CAVITY>
0.0126349

>  <SCORE.RESTR.norm>
0.000601664

>  <SCORE.SYSTEM>
-21.8954

>  <SCORE.SYSTEM.CONST>
0

>  <SCORE.SYSTEM.DIHEDRAL>
4.14384

>  <SCORE.SYSTEM.POLAR>
-7.46712

>  <SCORE.SYSTEM.REPUL>
1.39023

>  <SCORE.SYSTEM.VDW>
-5.53024

>  <SCORE.SYSTEM.norm>
-1.04264

>  <SCORE.heavy>
21

>  <SCORE.norm>
-2.67962

$$$$
SIA.pdb
  rDOCK(R)          3D
libRbt.so/2013.1/901 2013/11/27
 28 28  0  0  0  0  0  0  0  0999 V2000
   -7.2820   57.9849   -8.0831 C   0  0  0  0  0  0
   -6.4083   56.7601   -8.3657 C   0  0  0  0  0  0
   -6.4725   55.8472   -9.5835 C   0  0  0  0  0  0
   -5.1609   55.1246   -9.8503 C   0  0  0  0  0  0
   -4.3081   54.9877   -8.5920 C   0  0  0  0  0  0
   -3.9576   56.3892   -8.0822 C   0  0  0  0  0  0
   -3.2014   56.3327   -6.7417 C   0  0  0  0  0  0
   -1.8089   55.7153   -6.8845 C   0  0  0  0  0  0
   -0.7548   56.5933   -7.6028 C   0  0  0  0  0  0
   -2.5028   53.2333   -8.5037 C   0  0  0  0  0  0
   -1.2926   52.7152   -9.2630 C   0  0  0  0  0  0
   -3.1198   54.2753   -9.0257 N   0  0  0  0  0  0
   -6.5950   59.0088   -7.9109 O   0  0  0  0  0  0
   -8.5035   58.1296   -7.8905 O   0  0  0  0  0  0
   -6.6712   56.2849   -7.0433 O   0  0  0  0  0  0
   -5.4862   53.8272  -10.2917 O   0  0  0  0  0  0
   -5.1507   57.1501   -7.8005 O   0  0  0  0  0  0
   -3.0044   57.6284   -6.1986 O   0  0  0  0  0  0
   -1.3605   55.5537   -5.5578 O   0  0  0  0  0  0
    0.2196   57.0708   -6.6880 O   0  0  0  0  0  0
   -2.8995   52.7556   -7.4395 O   0  0  0  0  0  0
   -2.8231   54.6570   -9.8873 H   0  0  0  0  0  0
   -6.3166   55.3751   -7.0609 H   0  0  0  0  0  0
   -5.8804   53.3630   -9.5266 H   0  0  0  0  0  0
   -2.9892   57.1911   -5.3194 H   0  0  0  0  0  0
   -0.5908   56.1366   -5.5012 H   0  0  0  0  0  0
    0.9439   57.2625   -7.3151 H   0  0  0  0  0  0
   -9.1030   57.4629   -8.1630 H   0  0  0  0  0  0
  1 13  2  0  0  0
  1 14  1  0  0  0
  2  1  1  0  0  0
  2  3  1  0  0  0
  2 15  1  0  0  0
  2 17  1  0  0  0
  3  4  1  0  0  0
  4  5  1  0  0  0
  4 16  1  0  0  0
  5  6  1  0  0  0
  5 12  1  0  0  0
  6  7  1  0  0  0
  6 17  1  0  0  0
  7  8  1  0  0  0
  7 18  1  0  0  0
  8  9  1  0  0  0
  8 19  1  0  0  0
  9 20  1  0  0  0
 10 11  1  0  0  0
 10 12  1  0  0  0
 10 21  2  0  0  0
 12 22  1  0  0  0
 14 28  1  0  0  0
 15 23  1  0  0  0
 16 24  1  0  0  0
 18 25  1  0  0  0
 19 26  1  0  0  0
 20 27  1  0  0  0
M  END
>  <CHROM.0>
-154.38965486,89.26723740,81.73596209,144.76894289,22.70711417,75.03382165
-136.87398703,103.92117145,176.08869297,-64.19672475

>  <CHROM.1>
-19.19206647,-123.05031261,169.63196899,-68.01061550,-132.20484220,67.27204679
72.14462247,152.86022851,108.94988819,-116.27068864,158.27414259,-4.06501903
55.89485063,-7.92654448,-2.87644216,0.32505255,-2.60084646

>  <FORMUL>
      SIA    C11 H19 N1 O9

>  <HET>
 SIA  A 467      39

>  <HETNAM>
     SIA O-SIALIC ACID

>  <Name>
SIA.pdb

>  <RI>
0

>  <Rbt.Current_Directory>
/home/malgorzata/Desktop/rDOCK_IFD/Wyniki/12_neuraminidase

>  <Rbt.Executable>
rbdock ($Id: //depot/dev/client3/rdock/2013.1/src/exe/rbdock.cxx#4 $)

>  <Rbt.Library>
libRbt.so (2013.1, Build901 2013/11/27)

>  <Rbt.Parameter_File>
/home/malgorzata/Desktop/rDock_2013.1_src/data/scripts/soft_docking.prm

>  <Rbt.Receptor>
cavity.prm

>  <SCORE>
-58.4359

>  <SCORE.INTER>
-32.422

>  <SCORE.INTER.CONST>
1

>  <SCORE.INTER.POLAR>
-5.72691

>  <SCORE.INTER.REPUL>
0.273942

>  <SCORE.INTER.ROT>
5

>  <SCORE.INTER.VDW>
-24.7202

>  <SCORE.INTER.norm>
-1.5439

>  <SCORE.INTRA>
-0.753993

>  <SCORE.INTRA.DIHEDRAL>
-0.815871

>  <SCORE.INTRA.DIHEDRAL.0>
24.6845

>  <SCORE.INTRA.POLAR>
0.82968

>  <SCORE.INTRA.POLAR.0>
-0.967721

>  <SCORE.INTRA.REPUL>
0

>  <SCORE.INTRA.REPUL.0>
0

>  <SCORE.INTRA.VDW>
-3.41173

>  <SCORE.INTRA.VDW.0>
7.44847

>  <SCORE.INTRA.norm>
-0.0359044

>  <SCORE.RESTR>
0.0952738

>  <SCORE.RESTR.CAVITY>
0.0952738

>  <SCORE.RESTR.norm>
0.00453685

>  <SCORE.SYSTEM>
-25.3552

>  <SCORE.SYSTEM.CONST>
0

>  <SCORE.SYSTEM.DIHEDRAL>
10.7977

>  <SCORE.SYSTEM.POLAR>
-6.97242

>  <SCORE.SYSTEM.REPUL>
0.0340601

>  <SCORE.SYSTEM.VDW>
-7.21818

>  <SCORE.SYSTEM.norm>
-1.20739

>  <SCORE.heavy>
21

>  <SCORE.norm>
-2.78266

$$$$
SIA.pdb
  rDOCK(R)          3D
libRbt.so/2013.1/901 2013/11/27
 28 28  0  0  0  0  0  0  0  0999 V2000
   -5.7533   57.2664   -8.4640 C   0  0  0  0  0  0
   -4.3180   57.0173   -7.9939 C   0  0  0  0  0  0
   -3.2264   56.2583   -8.7376 C   0  0  0  0  0  0
   -1.8254   56.6731   -8.3152 C   0  0  0  0  0  0
   -1.7951   57.2646   -6.9086 C   0  0  0  0  0  0
   -2.6663   58.5246   -6.8876 C   0  0  0  0  0  0
   -2.7855   59.1084   -5.4674 C   0  0  0  0  0  0
   -3.4191   60.5009   -5.4618 C   0  0  0  0  0  0
   -4.9572   60.5389   -5.2859 C   0  0  0  0  0  0
    0.4747   57.0666   -5.8346 C   0  0  0  0  0  0
    1.8843   57.6313   -5.8918 C   0  0  0  0  0  0
   -0.3997   57.5881   -6.6727 N   0  0  0  0  0  0
   -5.8793   58.3941   -8.9763 O   0  0  0  0  0  0
   -6.8111   56.6217   -8.3389 O   0  0  0  0  0  0
   -4.8227   56.5807   -6.7297 O   0  0  0  0  0  0
   -1.0339   55.5080   -8.3080 O   0  0  0  0  0  0
   -4.0223   58.2220   -7.2767 O   0  0  0  0  0  0
   -3.6041   58.2995   -4.6377 O   0  0  0  0  0  0
   -2.8692   61.1304   -4.3264 O   0  0  0  0  0  0
   -5.6126   59.9661   -6.4070 O   0  0  0  0  0  0
    0.1186   56.1926   -5.0423 O   0  0  0  0  0  0
   -0.1236   58.2766   -7.3251 H   0  0  0  0  0  0
   -4.0127   56.4650   -6.1964 H   0  0  0  0  0  0
   -0.8579   55.2846   -9.2438 H   0  0  0  0  0  0
   -2.7771   57.8403   -4.3733 H   0  0  0  0  0  0
   -1.9153   61.0183   -4.4392 H   0  0  0  0  0  0
   -6.5008   59.8369   -6.0211 H   0  0  0  0  0  0
   -6.7946   55.6851   -8.3626 H   0  0  0  0  0  0
  1 13  2  0  0  0
  1 14  1  0  0  0
  2  1  1  0  0  0
  2  3  1  0  0  0
  2 15  1  0  0  0
  2 17  1  0  0  0
  3  4  1  0  0  0
  4  5  1  0  0  0
  4 16  1  0  0  0
  5  6  1  0  0  0
  5 12  1  0  0  0
  6  7  1  0  0  0
  6 17  1  0  0  0
  7  8  1  0  0  0
  7 18  1  0  0  0
  8  9  1  0  0  0
  8 19  1  0  0  0
  9 20  1  0  0  0
 10 11  1  0  0  0
 10 12  1  0  0  0
 10 21  2  0  0  0
 12 22  1  0  0  0
 14 28  1  0  0  0
 15 23  1  0  0  0
 16 24  1  0  0  0
 18 25  1  0  0  0
 19 26  1  0  0  0
 20 27  1  0  0  0
M  END
>  <CHROM.0>
-61.49496176,-66.06036205,21.38836341,-65.91498773,80.24274540,146.79468224
145.24694481,62.33312896,-138.12095445,95.64105355

>  <CHROM.1>
-36.08577727,-97.80401440,-173.02752201,74.43603978,-112.39676007,169.01403454
91.77091069,91.76832584,-66.52775658,52.42388531,164.29128456,-3.05774768
57.92254976,-6.73720019,3.13379353,-0.29322829,0.70778146

>  <FORMUL>
      SIA    C11 H19 N1 O9

>  <HET>
 SIA  A 467      39

>  <HETNAM>
     SIA O-SIALIC ACID

>  <Name>
SIA.pdb

>  <RI>
0

>  <Rbt.Current_Directory>
/home/malgorzata/Desktop/rDOCK_IFD/Wyniki/12_neuraminidase

>  <Rbt.Executable>
rbdock ($Id: //depot/dev/client3/rdock/2013.1/src/exe/rbdock.cxx#4 $)

>  <Rbt.Library>
libRbt.so (2013.1, Build901 2013/11/27)

>  <Rbt.Parameter_File>
/home/malgorzata/Desktop/rDock_2013.1_src/data/scripts/soft_docking.prm

>  <Rbt.Receptor>
cavity.prm

>  <SCORE>
-57.4665

>  <SCORE.INTER>
-24.9841

>  <SCORE.INTER.CONST>
1

>  <SCORE.INTER.POLAR>
-6.96277

>  <SCORE.INTER.REPUL>
0.291383

>  <SCORE.INTER.ROT>
5

>  <SCORE.INTER.VDW>
-13.1676

>  <SCORE.INTER.norm>
-1.18972

>  <SCORE.INTRA>
-6.5118

>  <SCORE.INTRA.DIHEDRAL>
-5.37401

>  <SCORE.INTRA.DIHEDRAL.0>
24.6845

>  <SCORE.INTRA.POLAR>
0.967721

>  <SCORE.INTRA.POLAR.0>
-0.967721

>  <SCORE.INTRA.REPUL>
0

>  <SCORE.INTRA.REPUL.0>
0

>  <SCORE.INTRA.VDW>
-8.72725

>  <SCORE.INTRA.VDW.0>
7.44847

>  <SCORE.INTRA.norm>
-0.310086

>  <SCORE.RESTR>
0.171034

>  <SCORE.RESTR.CAVITY>
0.171034

>  <SCORE.RESTR.norm>
0.0081445

>  <SCORE.SYSTEM>
-26.1416

>  <SCORE.SYSTEM.CONST>
0

>  <SCORE.SYSTEM.DIHEDRAL>
9.7499

>  <SCORE.SYSTEM.POLAR>
-6.95569

>  <SCORE.SYSTEM.REPUL>
0.0340601

>  <SCORE.SYSTEM.VDW>
-7.53753

>  <SCORE.SYSTEM.norm>
-1.24484

>  <SCORE.heavy>
21

>  <SCORE.norm>
-2.7365

$$$$
