SIA.pdb
  rDOCK(R)          3D
libRbt.so/2013.1/901 2013/11/27
 28 28  0  0  0  0  0  0  0  0999 V2000
   -5.9882   60.5033  -14.6871 C   0  0  0  0  0  0
   -5.4673   61.1775  -13.4152 C   0  0  0  0  0  0
   -6.0875   62.3604  -12.6827 C   0  0  0  0  0  0
   -5.7023   62.4130  -11.2122 C   0  0  0  0  0  0
   -4.3856   61.6937  -10.9319 C   0  0  0  0  0  0
   -4.5445   60.2165  -11.3060 C   0  0  0  0  0  0
   -3.2157   59.4502  -11.1678 C   0  0  0  0  0  0
   -3.4035   57.9356  -11.2742 C   0  0  0  0  0  0
   -4.0740   57.4313  -12.5759 C   0  0  0  0  0  0
   -4.8178   61.3378   -8.4760 C   0  0  0  0  0  0
   -4.2827   61.6911   -7.0983 C   0  0  0  0  0  0
   -4.1732   61.8530   -9.5046 N   0  0  0  0  0  0
   -6.5570   59.4249  -14.4349 O   0  0  0  0  0  0
   -5.8615   60.7634  -15.8981 O   0  0  0  0  0  0
   -4.1644   61.2424  -14.0000 O   0  0  0  0  0  0
   -5.5292   63.7704  -10.8785 O   0  0  0  0  0  0
   -4.9109   60.0715  -12.6940 O   0  0  0  0  0  0
   -2.2990   59.8067  -12.1902 O   0  0  0  0  0  0
   -2.0915   57.4198  -11.2722 O   0  0  0  0  0  0
   -4.4169   56.0579  -12.4734 O   0  0  0  0  0  0
   -5.8147   60.6387   -8.6649 O   0  0  0  0  0  0
   -3.3623   62.4004   -9.3681 H   0  0  0  0  0  0
   -3.5717   61.1784  -13.2264 H   0  0  0  0  0  0
   -5.3540   63.8010   -9.9169 H   0  0  0  0  0  0
   -1.5977   59.4532  -11.6004 H   0  0  0  0  0  0
   -1.7678   57.6147  -10.3820 H   0  0  0  0  0  0
   -4.8786   55.9467  -13.3272 H   0  0  0  0  0  0
   -5.3869   61.5255  -16.1665 H   0  0  0  0  0  0
  1 13  2  0  0  0
  1 14  1  0  0  0
  2  1  1  0  0  0
  2  3  1  0  0  0
  2 15  1  0  0  0
  2 17  1  0  0  0
  3  4  1  0  0  0
  4  5  1  0  0  0
  4 16  1  0  0  0
  5  6  1  0  0  0
  5 12  1  0  0  0
  6  7  1  0  0  0
  6 17  1  0  0  0
  7  8  1  0  0  0
  7 18  1  0  0  0
  8  9  1  0  0  0
  8 19  1  0  0  0
  9 20  1  0  0  0
 10 11  1  0  0  0
 10 12  1  0  0  0
 10 21  2  0  0  0
 12 22  1  0  0  0
 14 28  1  0  0  0
 15 23  1  0  0  0
 16 24  1  0  0  0
 18 25  1  0  0  0
 19 26  1  0  0  0
 20 27  1  0  0  0
M  END
>  <CHROM.0>
-176.92641879,-58.45435850,-61.30796416,63.21898109,64.45792529,-52.67797831
55.23087853,-79.23118437,-168.67216875,-103.33429734,-177.64110444,137.01155938

>  <CHROM.1>
-2.30388225,-103.00764069,-149.34705344,175.48066599,69.15403025,169.03815089
57.14145320,159.92353526,-169.52107700,67.24241204,175.55236185,-4.62351506
60.31050229,-11.78839758,1.60970856,1.07092181,-2.12515721

>  <FORMUL>
      SIA    C11 H19 N1 O9

>  <HET>
 SIA  A 467      39

>  <HETNAM>
     SIA O-SIALIC ACID

>  <Name>
SIA.pdb

>  <RI>
0

>  <Rbt.Current_Directory>
/home/malgorzata/Desktop/rDOCK_IFD/Wyniki/12a_neuraminidase/IFD

>  <Rbt.Executable>
rbdock ($Id: //depot/dev/client3/rdock/2013.1/src/exe/rbdock.cxx#4 $)

>  <Rbt.Library>
libRbt.so (2013.1, Build901 2013/11/27)

>  <Rbt.Parameter_File>
/home/malgorzata/Desktop/rDock_2013.1_src/data/scripts/hard_docking.prm

>  <Rbt.Receptor>
cavity.prm

>  <SCORE>
-29.5266

>  <SCORE.INTER>
-5.30477

>  <SCORE.INTER.CONST>
1

>  <SCORE.INTER.POLAR>
-1.9943

>  <SCORE.INTER.REPUL>
0

>  <SCORE.INTER.ROT>
5

>  <SCORE.INTER.VDW>
-8.92414

>  <SCORE.INTER.norm>
-0.252608

>  <SCORE.INTRA>
-16.0998

>  <SCORE.INTRA.DIHEDRAL>
-17.4703

>  <SCORE.INTRA.DIHEDRAL.0>
24.6845

>  <SCORE.INTRA.POLAR>
0.129925

>  <SCORE.INTRA.POLAR.0>
-0.967721

>  <SCORE.INTRA.REPUL>
0

>  <SCORE.INTRA.REPUL.0>
0

>  <SCORE.INTRA.VDW>
-7.80642

>  <SCORE.INTRA.VDW.0>
7.44847

>  <SCORE.INTRA.norm>
-0.766659

>  <SCORE.RESTR>
0

>  <SCORE.RESTR.CAVITY>
0

>  <SCORE.RESTR.norm>
0

>  <SCORE.SYSTEM>
-8.12202

>  <SCORE.SYSTEM.CONST>
0

>  <SCORE.SYSTEM.DIHEDRAL>
2.74957

>  <SCORE.SYSTEM.POLAR>
-1.55394

>  <SCORE.SYSTEM.REPUL>
0.303815

>  <SCORE.SYSTEM.VDW>
-5.7325

>  <SCORE.SYSTEM.norm>
-0.386763

>  <SCORE.heavy>
21

>  <SCORE.norm>
-1.40603

$$$$
SIA.pdb
  rDOCK(R)          3D
libRbt.so/2013.1/901 2013/11/27
 28 28  0  0  0  0  0  0  0  0999 V2000
   -2.2994   57.3140   -7.3288 C   0  0  0  0  0  0
   -2.6086   58.6674   -6.6837 C   0  0  0  0  0  0
   -2.3037   59.0944   -5.2536 C   0  0  0  0  0  0
   -2.1891   60.6032   -5.0989 C   0  0  0  0  0  0
   -2.9547   61.3569   -6.1831 C   0  0  0  0  0  0
   -2.3578   60.9947   -7.5468 C   0  0  0  0  0  0
   -3.1606   61.6213   -8.7020 C   0  0  0  0  0  0
   -2.5992   61.2423  -10.0738 C   0  0  0  0  0  0
   -3.2990   61.8964  -11.2906 C   0  0  0  0  0  0
   -3.5845   63.6782   -5.4350 C   0  0  0  0  0  0
   -3.0004   65.0569   -5.1759 C   0  0  0  0  0  0
   -2.7465   62.7604   -5.8759 N   0  0  0  0  0  0
   -2.5476   56.3699   -6.5560 O   0  0  0  0  0  0
   -1.7620   56.9895   -8.4040 O   0  0  0  0  0  0
   -3.9448   58.5854   -7.1852 O   0  0  0  0  0  0
   -2.7642   60.9363   -3.8571 O   0  0  0  0  0  0
   -2.4261   59.5724   -7.7795 O   0  0  0  0  0  0
   -4.5111   61.1867   -8.6949 O   0  0  0  0  0  0
   -1.2778   61.7334  -10.0584 O   0  0  0  0  0  0
   -3.1560   63.3081  -11.2626 O   0  0  0  0  0  0
   -4.7754   63.3997   -5.2852 O   0  0  0  0  0  0
   -1.7860   62.9651   -5.9835 H   0  0  0  0  0  0
   -4.2511   59.5121   -7.1506 H   0  0  0  0  0  0
   -2.2065   60.5190   -3.1706 H   0  0  0  0  0  0
   -4.6458   61.8155   -7.9526 H   0  0  0  0  0  0
   -0.7937   61.0784   -9.5371 H   0  0  0  0  0  0
   -2.1915   63.3659  -11.1178 H   0  0  0  0  0  0
   -1.6288   57.6313   -9.0736 H   0  0  0  0  0  0
  1 13  2  0  0  0
  1 14  1  0  0  0
  2  1  1  0  0  0
  2  3  1  0  0  0
  2 15  1  0  0  0
  2 17  1  0  0  0
  3  4  1  0  0  0
  4  5  1  0  0  0
  4 16  1  0  0  0
  5  6  1  0  0  0
  5 12  1  0  0  0
  6  7  1  0  0  0
  6 17  1  0  0  0
  7  8  1  0  0  0
  7 18  1  0  0  0
  8  9  1  0  0  0
  8 19  1  0  0  0
  9 20  1  0  0  0
 10 11  1  0  0  0
 10 12  1  0  0  0
 10 21  2  0  0  0
 12 22  1  0  0  0
 14 28  1  0  0  0
 15 23  1  0  0  0
 16 24  1  0  0  0
 18 25  1  0  0  0
 19 26  1  0  0  0
 20 27  1  0  0  0
M  END
>  <CHROM.0>
-57.74513272,-62.80948015,-61.30796416,-177.36308150,66.43651860,61.02344283
-102.60519817,-68.16242231,-172.18722521,-102.35790411,-156.94671714,3.75755970

>  <CHROM.1>
-13.43095138,41.83827169,-160.72242794,64.63154049,-110.65620116,-178.59979436
-176.62942357,76.77666673,62.90214219,78.27652762,49.71971352,-2.87476934
60.77760594,-7.35609323,-0.35042492,1.40619092,-1.24227266

>  <FORMUL>
      SIA    C11 H19 N1 O9

>  <HET>
 SIA  A 467      39

>  <HETNAM>
     SIA O-SIALIC ACID

>  <Name>
SIA.pdb

>  <RI>
0

>  <Rbt.Current_Directory>
/home/malgorzata/Desktop/rDOCK_IFD/Wyniki/12a_neuraminidase/IFD

>  <Rbt.Executable>
rbdock ($Id: //depot/dev/client3/rdock/2013.1/src/exe/rbdock.cxx#4 $)

>  <Rbt.Library>
libRbt.so (2013.1, Build901 2013/11/27)

>  <Rbt.Parameter_File>
/home/malgorzata/Desktop/rDock_2013.1_src/data/scripts/hard_docking.prm

>  <Rbt.Receptor>
cavity.prm

>  <SCORE>
-22.1818

>  <SCORE.INTER>
-5.4011

>  <SCORE.INTER.CONST>
1

>  <SCORE.INTER.POLAR>
-2.80734

>  <SCORE.INTER.REPUL>
0.131757

>  <SCORE.INTER.ROT>
5

>  <SCORE.INTER.VDW>
-6.91493

>  <SCORE.INTER.norm>
-0.257195

>  <SCORE.INTRA>
-15.2933

>  <SCORE.INTRA.DIHEDRAL>
-16.7147

>  <SCORE.INTRA.DIHEDRAL.0>
24.6845

>  <SCORE.INTRA.POLAR>
0.485009

>  <SCORE.INTRA.POLAR.0>
-0.967721

>  <SCORE.INTRA.REPUL>
0

>  <SCORE.INTRA.REPUL.0>
0

>  <SCORE.INTRA.VDW>
-8.58499

>  <SCORE.INTRA.VDW.0>
7.44847

>  <SCORE.INTRA.norm>
-0.728253

>  <SCORE.RESTR>
0.579223

>  <SCORE.RESTR.CAVITY>
0.579223

>  <SCORE.RESTR.norm>
0.0275821

>  <SCORE.SYSTEM>
-2.06657

>  <SCORE.SYSTEM.CONST>
0

>  <SCORE.SYSTEM.DIHEDRAL>
3.55785

>  <SCORE.SYSTEM.POLAR>
-0.804581

>  <SCORE.SYSTEM.REPUL>
0.389446

>  <SCORE.SYSTEM.VDW>
-3.05715

>  <SCORE.SYSTEM.norm>
-0.0984081

>  <SCORE.heavy>
21

>  <SCORE.norm>
-1.05627

$$$$
SIA.pdb
  rDOCK(R)          3D
libRbt.so/2013.1/901 2013/11/27
 28 28  0  0  0  0  0  0  0  0999 V2000
   -6.0237   55.9063  -10.0157 C   0  0  0  0  0  0
   -5.5657   56.6177   -8.7399 C   0  0  0  0  0  0
   -4.5928   56.0905   -7.6929 C   0  0  0  0  0  0
   -3.9149   57.2003   -6.9041 C   0  0  0  0  0  0
   -4.7366   58.4864   -6.8894 C   0  0  0  0  0  0
   -4.8931   58.9848   -8.3296 C   0  0  0  0  0  0
   -5.8185   60.2135   -8.4073 C   0  0  0  0  0  0
   -5.6756   60.9669   -9.7311 C   0  0  0  0  0  0
   -6.6006   62.1963   -9.9080 C   0  0  0  0  0  0
   -3.7933   59.5084   -4.7893 C   0  0  0  0  0  0
   -2.8494   60.5946   -4.3008 C   0  0  0  0  0  0
   -3.9547   59.4164   -6.0948 N   0  0  0  0  0  0
   -5.4320   56.3410  -11.0211 O   0  0  0  0  0  0
   -6.9238   55.0784  -10.2490 O   0  0  0  0  0  0
   -6.9301   56.9125   -8.4313 O   0  0  0  0  0  0
   -3.7980   56.7503   -5.5745 O   0  0  0  0  0  0
   -5.5329   57.9889   -9.1545 O   0  0  0  0  0  0
   -7.1849   59.8448   -8.3089 O   0  0  0  0  0  0
   -4.3541   61.4577   -9.7131 O   0  0  0  0  0  0
   -7.9550   61.7983  -10.0542 O   0  0  0  0  0  0
   -4.4175   58.7557   -4.0398 O   0  0  0  0  0  0
   -3.4471   60.0017   -6.7078 H   0  0  0  0  0  0
   -7.1411   57.6457   -9.0410 H   0  0  0  0  0  0
   -3.2810   55.9208   -5.6052 H   0  0  0  0  0  0
   -6.9931   59.6173   -7.3729 H   0  0  0  0  0  0
   -3.8118   60.6660   -9.8328 H   0  0  0  0  0  0
   -8.0267   61.1985   -9.2863 H   0  0  0  0  0  0
   -7.0914   54.8041  -11.1292 H   0  0  0  0  0  0
  1 13  2  0  0  0
  1 14  1  0  0  0
  2  1  1  0  0  0
  2  3  1  0  0  0
  2 15  1  0  0  0
  2 17  1  0  0  0
  3  4  1  0  0  0
  4  5  1  0  0  0
  4 16  1  0  0  0
  5  6  1  0  0  0
  5 12  1  0  0  0
  6  7  1  0  0  0
  6 17  1  0  0  0
  7  8  1  0  0  0
  7 18  1  0  0  0
  8  9  1  0  0  0
  8 19  1  0  0  0
  9 20  1  0  0  0
 10 11  1  0  0  0
 10 12  1  0  0  0
 10 21  2  0  0  0
 12 22  1  0  0  0
 14 28  1  0  0  0
 15 23  1  0  0  0
 16 24  1  0  0  0
 18 25  1  0  0  0
 19 26  1  0  0  0
 20 27  1  0  0  0
M  END
>  <CHROM.0>
179.82247719,64.92391856,-61.30796416,-62.49738967,66.65240657,-50.62272506
173.06188539,-71.96657788,179.58231523,-33.29935820,2.23713496,-159.26620452

>  <CHROM.1>
175.26915770,-101.67449032,-76.10733690,58.17397612,-77.06599252,163.40882539
178.39750974,69.34193892,-69.54010656,71.21310650,50.07737343,-5.32380643
58.62793069,-8.04472545,-2.89377495,-1.05440743,0.10809247

>  <FORMUL>
      SIA    C11 H19 N1 O9

>  <HET>
 SIA  A 467      39

>  <HETNAM>
     SIA O-SIALIC ACID

>  <Name>
SIA.pdb

>  <RI>
0

>  <Rbt.Current_Directory>
/home/malgorzata/Desktop/rDOCK_IFD/Wyniki/12a_neuraminidase/IFD

>  <Rbt.Executable>
rbdock ($Id: //depot/dev/client3/rdock/2013.1/src/exe/rbdock.cxx#4 $)

>  <Rbt.Library>
libRbt.so (2013.1, Build901 2013/11/27)

>  <Rbt.Parameter_File>
/home/malgorzata/Desktop/rDock_2013.1_src/data/scripts/hard_docking.prm

>  <Rbt.Receptor>
cavity.prm

>  <SCORE>
-37.9258

>  <SCORE.INTER>
-13.8148

>  <SCORE.INTER.CONST>
1

>  <SCORE.INTER.POLAR>
-3.12204

>  <SCORE.INTER.REPUL>
0.0298782

>  <SCORE.INTER.ROT>
5

>  <SCORE.INTER.VDW>
-13.7493

>  <SCORE.INTER.norm>
-0.65785

>  <SCORE.INTRA>
-15.3598

>  <SCORE.INTRA.DIHEDRAL>
-16.6436

>  <SCORE.INTRA.DIHEDRAL.0>
24.6845

>  <SCORE.INTRA.POLAR>
-0.0599393

>  <SCORE.INTRA.POLAR.0>
-0.967721

>  <SCORE.INTRA.REPUL>
0

>  <SCORE.INTRA.REPUL.0>
0

>  <SCORE.INTRA.VDW>
-6.83422

>  <SCORE.INTRA.VDW.0>
7.44847

>  <SCORE.INTRA.norm>
-0.731419

>  <SCORE.RESTR>
0

>  <SCORE.RESTR.CAVITY>
0

>  <SCORE.RESTR.norm>
0

>  <SCORE.SYSTEM>
-8.75113

>  <SCORE.SYSTEM.CONST>
0

>  <SCORE.SYSTEM.DIHEDRAL>
2.87159

>  <SCORE.SYSTEM.POLAR>
-1.57369

>  <SCORE.SYSTEM.REPUL>
0.237721

>  <SCORE.SYSTEM.VDW>
-6.02497

>  <SCORE.SYSTEM.norm>
-0.416721

>  <SCORE.heavy>
21

>  <SCORE.norm>
-1.80599

$$$$
SIA.pdb
  rDOCK(R)          3D
libRbt.so/2013.1/901 2013/11/27
 28 28  0  0  0  0  0  0  0  0999 V2000
    1.9508   61.2683   -6.9845 C   0  0  0  0  0  0
    0.5084   61.2875   -6.4724 C   0  0  0  0  0  0
    0.0389   61.6181   -5.0614 C   0  0  0  0  0  0
   -1.3991   62.1118   -5.0174 C   0  0  0  0  0  0
   -2.2159   61.6251   -6.2114 C   0  0  0  0  0  0
   -1.5863   62.1776   -7.4942 C   0  0  0  0  0  0
   -2.2835   61.6258   -8.7517 C   0  0  0  0  0  0
   -1.5988   62.0783  -10.0428 C   0  0  0  0  0  0
   -2.1265   61.4299  -11.3463 C   0  0  0  0  0  0
   -4.7211   61.7669   -6.4319 C   0  0  0  0  0  0
   -5.9243   62.5718   -5.9695 C   0  0  0  0  0  0
   -3.5433   62.1739   -6.0005 N   0  0  0  0  0  0
    2.7225   61.8574   -6.2050 O   0  0  0  0  0  0
    2.4680   60.8838   -8.0498 O   0  0  0  0  0  0
    0.2960   60.0036   -7.0642 O   0  0  0  0  0  0
   -1.9836   61.5791   -3.8519 O   0  0  0  0  0  0
   -0.2124   61.7550   -7.6192 O   0  0  0  0  0  0
   -2.2713   60.2073   -8.7751 O   0  0  0  0  0  0
   -1.8932   63.4542  -10.1308 O   0  0  0  0  0  0
   -3.4868   61.7679  -11.5693 O   0  0  0  0  0  0
   -4.7949   60.8009   -7.1932 O   0  0  0  0  0  0
   -3.4712   62.9358   -5.3758 H   0  0  0  0  0  0
   -0.6695   59.9849   -7.2108 H   0  0  0  0  0  0
   -2.8998   61.9195   -3.8187 H   0  0  0  0  0  0
   -3.1062   60.2523   -8.2599 H   0  0  0  0  0  0
   -1.4761   63.8307   -9.3436 H   0  0  0  0  0  0
   -3.6321   61.2904  -12.4092 H   0  0  0  0  0  0
    3.3539   61.1139   -8.2504 H   0  0  0  0  0  0
  1 13  2  0  0  0
  1 14  1  0  0  0
  2  1  1  0  0  0
  2  3  1  0  0  0
  2 15  1  0  0  0
  2 17  1  0  0  0
  3  4  1  0  0  0
  4  5  1  0  0  0
  4 16  1  0  0  0
  5  6  1  0  0  0
  5 12  1  0  0  0
  6  7  1  0  0  0
  6 17  1  0  0  0
  7  8  1  0  0  0
  7 18  1  0  0  0
  8  9  1  0  0  0
  8 19  1  0  0  0
  9 20  1  0  0  0
 10 11  1  0  0  0
 10 12  1  0  0  0
 10 21  2  0  0  0
 12 22  1  0  0  0
 14 28  1  0  0  0
 15 23  1  0  0  0
 16 24  1  0  0  0
 18 25  1  0  0  0
 19 26  1  0  0  0
 20 27  1  0  0  0
M  END
>  <CHROM.0>
61.10809086,64.15760635,-61.30796416,62.62968135,66.63391842,-50.40783311
167.67321898,-84.15627109,-164.83285620,-103.16237289,179.39693707,-145.72178566

>  <CHROM.1>
167.46724414,-15.71332462,-155.06178316,178.56189228,-155.32140675,-175.45014393
172.73288156,87.70762768,62.99645061,62.24952596,179.56676061,-1.52580593
61.60819630,-7.48097575,-0.32832519,0.09562477,-1.56247905

>  <FORMUL>
      SIA    C11 H19 N1 O9

>  <HET>
 SIA  A 467      39

>  <HETNAM>
     SIA O-SIALIC ACID

>  <Name>
SIA.pdb

>  <RI>
0

>  <Rbt.Current_Directory>
/home/malgorzata/Desktop/rDOCK_IFD/Wyniki/12a_neuraminidase/IFD

>  <Rbt.Executable>
rbdock ($Id: //depot/dev/client3/rdock/2013.1/src/exe/rbdock.cxx#4 $)

>  <Rbt.Library>
libRbt.so (2013.1, Build901 2013/11/27)

>  <Rbt.Parameter_File>
/home/malgorzata/Desktop/rDock_2013.1_src/data/scripts/hard_docking.prm

>  <Rbt.Receptor>
cavity.prm

>  <SCORE>
-32.3547

>  <SCORE.INTER>
-7.73785

>  <SCORE.INTER.CONST>
1

>  <SCORE.INTER.POLAR>
-3.03742

>  <SCORE.INTER.REPUL>
0.183071

>  <SCORE.INTER.ROT>
5

>  <SCORE.INTER.VDW>
-8.72599

>  <SCORE.INTER.norm>
-0.368469

>  <SCORE.INTRA>
-17.1119

>  <SCORE.INTRA.DIHEDRAL>
-17.2412

>  <SCORE.INTRA.DIHEDRAL.0>
24.6845

>  <SCORE.INTRA.POLAR>
-0.37806

>  <SCORE.INTRA.POLAR.0>
-0.967721

>  <SCORE.INTRA.REPUL>
0

>  <SCORE.INTRA.REPUL.0>
0

>  <SCORE.INTRA.VDW>
-7.20588

>  <SCORE.INTRA.VDW.0>
7.44847

>  <SCORE.INTRA.norm>
-0.814852

>  <SCORE.RESTR>
0.986169

>  <SCORE.RESTR.CAVITY>
0.986169

>  <SCORE.RESTR.norm>
0.0469604

>  <SCORE.SYSTEM>
-8.49116

>  <SCORE.SYSTEM.CONST>
0

>  <SCORE.SYSTEM.DIHEDRAL>
2.81197

>  <SCORE.SYSTEM.POLAR>
-1.57408

>  <SCORE.SYSTEM.REPUL>
0.276258

>  <SCORE.SYSTEM.VDW>
-5.92657

>  <SCORE.SYSTEM.norm>
-0.404341

>  <SCORE.heavy>
21

>  <SCORE.norm>
-1.5407

$$$$
SIA.pdb
  rDOCK(R)          3D
libRbt.so/2013.1/901 2013/11/27
 28 28  0  0  0  0  0  0  0  0999 V2000
   -6.7880   56.6531   -8.8923 C   0  0  0  0  0  0
   -5.7162   57.2131   -9.8309 C   0  0  0  0  0  0
   -5.1436   56.5446  -11.0741 C   0  0  0  0  0  0
   -4.5721   57.5411  -12.0710 C   0  0  0  0  0  0
   -4.1553   58.8508  -11.4074 C   0  0  0  0  0  0
   -5.3936   59.4980  -10.7791 C   0  0  0  0  0  0
   -5.0292   60.7641   -9.9816 C   0  0  0  0  0  0
   -6.2549   61.4275   -9.3505 C   0  0  0  0  0  0
   -5.9666   62.6554   -8.4520 C   0  0  0  0  0  0
   -4.1912   60.0646  -13.6142 C   0  0  0  0  0  0
   -3.3476   60.9589  -14.5074 C   0  0  0  0  0  0
   -3.6309   59.6639  -12.4897 N   0  0  0  0  0  0
   -7.2418   55.5707   -9.3078 O   0  0  0  0  0  0
   -7.3536   57.1100   -7.8816 O   0  0  0  0  0  0
   -4.9071   57.5293   -8.6955 O   0  0  0  0  0  0
   -3.4179   56.9548  -12.6261 O   0  0  0  0  0  0
   -6.0035   58.6168   -9.8131 O   0  0  0  0  0  0
   -4.1451   60.4704   -8.9116 O   0  0  0  0  0  0
   -7.0011   61.9000  -10.4494 O   0  0  0  0  0  0
   -5.3383   63.6914   -9.1910 O   0  0  0  0  0  0
   -5.3275   59.6853  -13.9022 O   0  0  0  0  0  0
   -2.7275   59.9747  -12.2382 H   0  0  0  0  0  0
   -4.2349   58.1341   -9.0647 H   0  0  0  0  0  0
   -3.7245   56.2257  -13.2013 H   0  0  0  0  0  0
   -3.4551   60.3396   -9.5980 H   0  0  0  0  0  0
   -7.8342   62.1922  -10.0546 H   0  0  0  0  0  0
   -4.4877   63.2521   -9.3861 H   0  0  0  0  0  0
   -8.0495   56.6303   -7.4771 H   0  0  0  0  0  0
  1 13  2  0  0  0
  1 14  1  0  0  0
  2  1  1  0  0  0
  2  3  1  0  0  0
  2 15  1  0  0  0
  2 17  1  0  0  0
  3  4  1  0  0  0
  4  5  1  0  0  0
  4 16  1  0  0  0
  5  6  1  0  0  0
  5 12  1  0  0  0
  6  7  1  0  0  0
  6 17  1  0  0  0
  7  8  1  0  0  0
  7 18  1  0  0  0
  8  9  1  0  0  0
  8 19  1  0  0  0
  9 20  1  0  0  0
 10 11  1  0  0  0
 10 12  1  0  0  0
 10 21  2  0  0  0
 12 22  1  0  0  0
 14 28  1  0  0  0
 15 23  1  0  0  0
 16 24  1  0  0  0
 18 25  1  0  0  0
 19 26  1  0  0  0
 20 27  1  0  0  0
M  END
>  <CHROM.0>
59.84753167,-60.72511552,-61.30796416,-62.11870295,66.98529564,-51.32456954
-179.93950429,-96.18092447,-175.81958245,165.50263779,177.35031642,-151.44532562

>  <CHROM.1>
174.86921511,-4.55856894,-165.36275232,70.59763427,57.60720070,179.79424270
176.10284617,72.28775704,60.90804904,171.46321157,-66.43397813,-5.28605986
59.22979841,-10.59584485,2.10715769,-1.08766612,-3.01747121

>  <FORMUL>
      SIA    C11 H19 N1 O9

>  <HET>
 SIA  A 467      39

>  <HETNAM>
     SIA O-SIALIC ACID

>  <Name>
SIA.pdb

>  <RI>
0

>  <Rbt.Current_Directory>
/home/malgorzata/Desktop/rDOCK_IFD/Wyniki/12a_neuraminidase/IFD

>  <Rbt.Executable>
rbdock ($Id: //depot/dev/client3/rdock/2013.1/src/exe/rbdock.cxx#4 $)

>  <Rbt.Library>
libRbt.so (2013.1, Build901 2013/11/27)

>  <Rbt.Parameter_File>
/home/malgorzata/Desktop/rDock_2013.1_src/data/scripts/hard_docking.prm

>  <Rbt.Receptor>
cavity.prm

>  <SCORE>
-31.9315

>  <SCORE.INTER>
-6.36885

>  <SCORE.INTER.CONST>
1

>  <SCORE.INTER.POLAR>
-1.50781

>  <SCORE.INTER.REPUL>
0

>  <SCORE.INTER.ROT>
5

>  <SCORE.INTER.VDW>
-11.6423

>  <SCORE.INTER.norm>
-0.303279

>  <SCORE.INTRA>
-15.5941

>  <SCORE.INTRA.DIHEDRAL>
-20.5843

>  <SCORE.INTRA.DIHEDRAL.0>
24.6845

>  <SCORE.INTRA.POLAR>
0.89613

>  <SCORE.INTRA.POLAR.0>
-0.967721

>  <SCORE.INTRA.REPUL>
0

>  <SCORE.INTRA.REPUL.0>
0

>  <SCORE.INTRA.VDW>
-8.3488

>  <SCORE.INTRA.VDW.0>
7.44847

>  <SCORE.INTRA.norm>
-0.742576

>  <SCORE.RESTR>
0.0531322

>  <SCORE.RESTR.CAVITY>
0.0531322

>  <SCORE.RESTR.norm>
0.00253011

>  <SCORE.SYSTEM>
-10.0217

>  <SCORE.SYSTEM.CONST>
0

>  <SCORE.SYSTEM.DIHEDRAL>
2.74494

>  <SCORE.SYSTEM.POLAR>
-1.57364

>  <SCORE.SYSTEM.REPUL>
0.00725772

>  <SCORE.SYSTEM.VDW>
-6.08009

>  <SCORE.SYSTEM.norm>
-0.477224

>  <SCORE.heavy>
21

>  <SCORE.norm>
-1.52055

$$$$
SIA.pdb
  rDOCK(R)          3D
libRbt.so/2013.1/901 2013/11/27
 28 28  0  0  0  0  0  0  0  0999 V2000
   -7.1984   57.8853   -8.4445 C   0  0  0  0  0  0
   -5.8363   58.5512   -8.6560 C   0  0  0  0  0  0
   -4.4821   57.8608   -8.7565 C   0  0  0  0  0  0
   -3.4557   58.6814   -9.5226 C   0  0  0  0  0  0
   -3.7727   60.1742   -9.4992 C   0  0  0  0  0  0
   -5.1286   60.3984  -10.1762 C   0  0  0  0  0  0
   -5.5748   61.8692  -10.0794 C   0  0  0  0  0  0
   -6.7789   62.1722  -10.9733 C   0  0  0  0  0  0
   -7.3856   63.5894  -10.8260 C   0  0  0  0  0  0
   -2.2563   60.5503  -11.4750 C   0  0  0  0  0  0
   -1.1273   61.4382  -11.9713 C   0  0  0  0  0  0
   -2.6998   60.7925  -10.2570 N   0  0  0  0  0  0
   -7.0814   56.7465   -7.9550 O   0  0  0  0  0  0
   -8.3589   58.2090   -8.7583 O   0  0  0  0  0  0
   -6.1427   59.4778   -7.6114 O   0  0  0  0  0  0
   -2.2157   58.4958   -8.8808 O   0  0  0  0  0  0
   -6.1687   59.6531   -9.5094 O   0  0  0  0  0  0
   -5.9681   62.2095   -8.7595 O   0  0  0  0  0  0
   -6.2702   62.0873  -12.2854 O   0  0  0  0  0  0
   -6.4646   64.5842  -11.2458 O   0  0  0  0  0  0
   -2.7372   59.6238  -12.1296 O   0  0  0  0  0  0
   -2.3355   61.5432   -9.7281 H   0  0  0  0  0  0
   -5.3630   60.0659   -7.6020 H   0  0  0  0  0  0
   -2.3072   58.8727   -7.9830 H   0  0  0  0  0  0
   -5.0136   62.1735   -8.5310 H   0  0  0  0  0  0
   -7.0540   62.1823  -12.8439 H   0  0  0  0  0  0
   -5.7637   64.4408  -10.5804 H   0  0  0  0  0  0
   -9.0495   57.5771   -8.7149 H   0  0  0  0  0  0
  1 13  2  0  0  0
  1 14  1  0  0  0
  2  1  1  0  0  0
  2  3  1  0  0  0
  2 15  1  0  0  0
  2 17  1  0  0  0
  3  4  1  0  0  0
  4  5  1  0  0  0
  4 16  1  0  0  0
  5  6  1  0  0  0
  5 12  1  0  0  0
  6  7  1  0  0  0
  6 17  1  0  0  0
  7  8  1  0  0  0
  7 18  1  0  0  0
  8  9  1  0  0  0
  8 19  1  0  0  0
  9 20  1  0  0  0
 10 11  1  0  0  0
 10 12  1  0  0  0
 10 21  2  0  0  0
 12 22  1  0  0  0
 14 28  1  0  0  0
 15 23  1  0  0  0
 16 24  1  0  0  0
 18 25  1  0  0  0
 19 26  1  0  0  0
 20 27  1  0  0  0
M  END
>  <CHROM.0>
63.40949958,-61.76382198,-61.30796416,-61.70337037,67.80937678,-49.14746401
172.27329489,74.38589474,117.76780970,-100.90286136,-178.90949016,-162.64475028

>  <CHROM.1>
165.90644337,20.56471102,-177.53034949,-64.03346431,54.05496889,168.86318451
173.84060412,72.48924249,65.02734453,173.94870368,-63.67017288,-5.12902566
60.27185792,-9.88246089,1.88555356,-0.27290466,2.63957571

>  <FORMUL>
      SIA    C11 H19 N1 O9

>  <HET>
 SIA  A 467      39

>  <HETNAM>
     SIA O-SIALIC ACID

>  <Name>
SIA.pdb

>  <RI>
0

>  <Rbt.Current_Directory>
/home/malgorzata/Desktop/rDOCK_IFD/Wyniki/12a_neuraminidase/IFD

>  <Rbt.Executable>
rbdock ($Id: //depot/dev/client3/rdock/2013.1/src/exe/rbdock.cxx#4 $)

>  <Rbt.Library>
libRbt.so (2013.1, Build901 2013/11/27)

>  <Rbt.Parameter_File>
/home/malgorzata/Desktop/rDock_2013.1_src/data/scripts/hard_docking.prm

>  <Rbt.Receptor>
cavity.prm

>  <SCORE>
-29.6254

>  <SCORE.INTER>
-5.28962

>  <SCORE.INTER.CONST>
1

>  <SCORE.INTER.POLAR>
-2.37885

>  <SCORE.INTER.REPUL>
0.225685

>  <SCORE.INTER.ROT>
5

>  <SCORE.INTER.VDW>
-8.72996

>  <SCORE.INTER.norm>
-0.251887

>  <SCORE.INTRA>
-14.7279

>  <SCORE.INTRA.DIHEDRAL>
-19.3029

>  <SCORE.INTRA.DIHEDRAL.0>
24.6845

>  <SCORE.INTRA.POLAR>
0.967721

>  <SCORE.INTRA.POLAR.0>
-0.967721

>  <SCORE.INTRA.REPUL>
0

>  <SCORE.INTRA.REPUL.0>
0

>  <SCORE.INTRA.VDW>
-8.36668

>  <SCORE.INTRA.VDW.0>
7.44847

>  <SCORE.INTRA.norm>
-0.701327

>  <SCORE.RESTR>
0

>  <SCORE.RESTR.CAVITY>
0

>  <SCORE.RESTR.norm>
0

>  <SCORE.SYSTEM>
-9.60791

>  <SCORE.SYSTEM.CONST>
0

>  <SCORE.SYSTEM.DIHEDRAL>
2.86313

>  <SCORE.SYSTEM.POLAR>
-1.58256

>  <SCORE.SYSTEM.REPUL>
0.0666545

>  <SCORE.SYSTEM.VDW>
-5.99203

>  <SCORE.SYSTEM.norm>
-0.457519

>  <SCORE.heavy>
21

>  <SCORE.norm>
-1.41073

$$$$
SIA.pdb
  rDOCK(R)          3D
libRbt.so/2013.1/901 2013/11/27
 28 28  0  0  0  0  0  0  0  0999 V2000
   -4.3727   57.5988  -12.3712 C   0  0  0  0  0  0
   -4.9718   57.9680  -11.0118 C   0  0  0  0  0  0
   -5.2107   57.0370   -9.8299 C   0  0  0  0  0  0
   -5.2528   57.7710   -8.4984 C   0  0  0  0  0  0
   -5.6397   59.2388   -8.6575 C   0  0  0  0  0  0
   -4.5843   59.9330   -9.5243 C   0  0  0  0  0  0
   -4.9734   61.3907   -9.8333 C   0  0  0  0  0  0
   -6.3087   61.4925  -10.5730 C   0  0  0  0  0  0
   -6.9872   62.8843  -10.5469 C   0  0  0  0  0  0
   -4.6493   59.9707   -6.4602 C   0  0  0  0  0  0
   -5.0176   60.5966   -5.1253 C   0  0  0  0  0  0
   -5.6405   59.7702   -7.3065 N   0  0  0  0  0  0
   -4.1961   56.3709  -12.4767 O   0  0  0  0  0  0
   -3.9402   58.2783  -13.3206 O   0  0  0  0  0  0
   -6.0422   58.6384  -11.6813 O   0  0  0  0  0  0
   -6.2436   57.1485   -7.7144 O   0  0  0  0  0  0
   -4.4773   59.2984  -10.8157 O   0  0  0  0  0  0
   -5.1208   62.1542   -8.6467 O   0  0  0  0  0  0
   -5.9834   61.2293  -11.9193 O   0  0  0  0  0  0
   -8.0834   62.9338  -11.4470 O   0  0  0  0  0  0
   -3.5058   59.6254   -6.7624 O   0  0  0  0  0  0
   -6.5589   60.0583   -7.0842 H   0  0  0  0  0  0
   -6.6422   57.9075  -11.9257 H   0  0  0  0  0  0
   -7.0904   57.2679   -8.1888 H   0  0  0  0  0  0
   -4.8864   62.9359   -9.1931 H   0  0  0  0  0  0
   -5.6767   60.3121  -11.9080 H   0  0  0  0  0  0
   -7.6208   62.6901  -12.2723 H   0  0  0  0  0  0
   -3.9664   59.2140  -13.2773 H   0  0  0  0  0  0
  1 13  2  0  0  0
  1 14  1  0  0  0
  2  1  1  0  0  0
  2  3  1  0  0  0
  2 15  1  0  0  0
  2 17  1  0  0  0
  3  4  1  0  0  0
  4  5  1  0  0  0
  4 16  1  0  0  0
  5  6  1  0  0  0
  5 12  1  0  0  0
  6  7  1  0  0  0
  6 17  1  0  0  0
  7  8  1  0  0  0
  7 18  1  0  0  0
  8  9  1  0  0  0
  8 19  1  0  0  0
  9 20  1  0  0  0
 10 11  1  0  0  0
 10 12  1  0  0  0
 10 21  2  0  0  0
 12 22  1  0  0  0
 14 28  1  0  0  0
 15 23  1  0  0  0
 16 24  1  0  0  0
 18 25  1  0  0  0
 19 26  1  0  0  0
 20 27  1  0  0  0
M  END
>  <CHROM.0>
63.02140551,-61.43230420,-61.30796416,-178.45640877,69.09041546,-49.80132241
-51.00214245,82.77005367,138.12830410,-99.01539808,7.10739016,-145.31532656

>  <CHROM.1>
-1.34494328,6.35156725,80.53806238,-62.32991867,67.73220013,-59.39459815
162.11189308,153.06641773,169.69721874,64.51830568,-56.84039465,-5.32289337
59.61202243,-9.78944009,-1.41970452,-1.20513738,1.30951208

>  <FORMUL>
      SIA    C11 H19 N1 O9

>  <HET>
 SIA  A 467      39

>  <HETNAM>
     SIA O-SIALIC ACID

>  <Name>
SIA.pdb

>  <RI>
0

>  <Rbt.Current_Directory>
/home/malgorzata/Desktop/rDOCK_IFD/Wyniki/12a_neuraminidase/IFD

>  <Rbt.Executable>
rbdock ($Id: //depot/dev/client3/rdock/2013.1/src/exe/rbdock.cxx#4 $)

>  <Rbt.Library>
libRbt.so (2013.1, Build901 2013/11/27)

>  <Rbt.Parameter_File>
/home/malgorzata/Desktop/rDock_2013.1_src/data/scripts/hard_docking.prm

>  <Rbt.Receptor>
cavity.prm

>  <SCORE>
-32.7776

>  <SCORE.INTER>
-5.83678

>  <SCORE.INTER.CONST>
1

>  <SCORE.INTER.POLAR>
-1.72486

>  <SCORE.INTER.REPUL>
0

>  <SCORE.INTER.ROT>
5

>  <SCORE.INTER.VDW>
-10.3723

>  <SCORE.INTER.norm>
-0.277942

>  <SCORE.INTRA>
-19.2048

>  <SCORE.INTRA.DIHEDRAL>
-17.3907

>  <SCORE.INTRA.DIHEDRAL.0>
24.6845

>  <SCORE.INTRA.POLAR>
-0.795468

>  <SCORE.INTRA.POLAR.0>
-0.967721

>  <SCORE.INTRA.REPUL>
0

>  <SCORE.INTRA.REPUL.0>
0

>  <SCORE.INTRA.VDW>
-7.80489

>  <SCORE.INTRA.VDW.0>
7.44847

>  <SCORE.INTRA.norm>
-0.914515

>  <SCORE.RESTR>
0

>  <SCORE.RESTR.CAVITY>
0

>  <SCORE.RESTR.norm>
0

>  <SCORE.SYSTEM>
-7.73601

>  <SCORE.SYSTEM.CONST>
0

>  <SCORE.SYSTEM.DIHEDRAL>
3.02168

>  <SCORE.SYSTEM.POLAR>
-1.58878

>  <SCORE.SYSTEM.REPUL>
0.398296

>  <SCORE.SYSTEM.VDW>
-5.83648

>  <SCORE.SYSTEM.norm>
-0.368382

>  <SCORE.heavy>
21

>  <SCORE.norm>
-1.56084

$$$$
SIA.pdb
  rDOCK(R)          3D
libRbt.so/2013.1/901 2013/11/27
 28 28  0  0  0  0  0  0  0  0999 V2000
   -4.4551   57.2623  -12.7877 C   0  0  0  0  0  0
   -5.1974   58.0150  -11.6806 C   0  0  0  0  0  0
   -5.8866   57.4125  -10.4630 C   0  0  0  0  0  0
   -6.0043   58.3921   -9.3054 C   0  0  0  0  0  0
   -5.9754   59.8454   -9.7706 C   0  0  0  0  0  0
   -4.6321   60.1141  -10.4566 C   0  0  0  0  0  0
   -4.5785   61.5281  -11.0647 C   0  0  0  0  0  0
   -3.2834   61.7797  -11.8394 C   0  0  0  0  0  0
   -1.9866   61.2677  -11.1653 C   0  0  0  0  0  0
   -5.2475   60.8584   -7.5823 C   0  0  0  0  0  0
   -5.7200   61.7758   -6.4668 C   0  0  0  0  0  0
   -6.1082   60.6265   -8.5541 N   0  0  0  0  0  0
   -4.3581   56.0478  -12.5316 O   0  0  0  0  0  0
   -3.8530   57.6362  -13.8114 O   0  0  0  0  0  0
   -5.9154   58.7455  -12.6779 O   0  0  0  0  0  0
   -7.2523   58.1618   -8.6943 O   0  0  0  0  0  0
   -4.4359   59.2242  -11.5752 O   0  0  0  0  0  0
   -5.6365   61.7406  -11.9857 O   0  0  0  0  0  0
   -3.4378   61.0383  -13.0285 O   0  0  0  0  0  0
   -0.8648   61.4475  -12.0159 O   0  0  0  0  0  0
   -4.1417   60.3151   -7.6001 O   0  0  0  0  0  0
   -6.9912   61.0693   -8.5614 H   0  0  0  0  0  0
   -6.5992   58.1109  -12.9671 H   0  0  0  0  0  0
   -7.2203   57.2556   -8.3278 H   0  0  0  0  0  0
   -5.3969   60.8685  -12.3686 H   0  0  0  0  0  0
   -3.5776   60.1326  -12.7198 H   0  0  0  0  0  0
   -0.1897   60.9793  -11.4873 H   0  0  0  0  0  0
   -3.8555   58.5418  -14.0520 H   0  0  0  0  0  0
  1 13  2  0  0  0
  1 14  1  0  0  0
  2  1  1  0  0  0
  2  3  1  0  0  0
  2 15  1  0  0  0
  2 17  1  0  0  0
  3  4  1  0  0  0
  4  5  1  0  0  0
  4 16  1  0  0  0
  5  6  1  0  0  0
  5 12  1  0  0  0
  6  7  1  0  0  0
  6 17  1  0  0  0
  7  8  1  0  0  0
  7 18  1  0  0  0
  8  9  1  0  0  0
  8 19  1  0  0  0
  9 20  1  0  0  0
 10 11  1  0  0  0
 10 12  1  0  0  0
 10 21  2  0  0  0
 12 22  1  0  0  0
 14 28  1  0  0  0
 15 23  1  0  0  0
 16 24  1  0  0  0
 18 25  1  0  0  0
 19 26  1  0  0  0
 20 27  1  0  0  0
M  END
>  <CHROM.0>
178.64929594,-178.57728331,-61.30796416,-62.93048779,66.77859340,-49.49324279
-107.44475147,-131.14552801,173.90539552,145.57655341,5.57930696,15.46422812

>  <CHROM.1>
-4.77640761,-6.12721296,78.63710515,64.26917400,73.24145517,-175.94889754
-42.79490834,-47.24663267,174.94000442,-58.08275550,-173.27726822,-4.69480370
59.67278274,-10.77313518,1.04313455,-0.82344293,-2.31665669

>  <FORMUL>
      SIA    C11 H19 N1 O9

>  <HET>
 SIA  A 467      39

>  <HETNAM>
     SIA O-SIALIC ACID

>  <Name>
SIA.pdb

>  <RI>
0

>  <Rbt.Current_Directory>
/home/malgorzata/Desktop/rDOCK_IFD/Wyniki/12a_neuraminidase/IFD

>  <Rbt.Executable>
rbdock ($Id: //depot/dev/client3/rdock/2013.1/src/exe/rbdock.cxx#4 $)

>  <Rbt.Library>
libRbt.so (2013.1, Build901 2013/11/27)

>  <Rbt.Parameter_File>
/home/malgorzata/Desktop/rDock_2013.1_src/data/scripts/hard_docking.prm

>  <Rbt.Receptor>
cavity.prm

>  <SCORE>
-29.7715

>  <SCORE.INTER>
-2.76719

>  <SCORE.INTER.CONST>
1

>  <SCORE.INTER.POLAR>
-1.34984

>  <SCORE.INTER.REPUL>
0

>  <SCORE.INTER.ROT>
5

>  <SCORE.INTER.VDW>
-8.57775

>  <SCORE.INTER.norm>
-0.131771

>  <SCORE.INTRA>
-18.1808

>  <SCORE.INTRA.DIHEDRAL>
-19.7949

>  <SCORE.INTRA.DIHEDRAL.0>
24.6845

>  <SCORE.INTRA.POLAR>
-0.97563

>  <SCORE.INTRA.POLAR.0>
-0.967721

>  <SCORE.INTRA.REPUL>
0.00703607

>  <SCORE.INTRA.REPUL.0>
0

>  <SCORE.INTRA.VDW>
-5.0014

>  <SCORE.INTRA.VDW.0>
7.44847

>  <SCORE.INTRA.norm>
-0.865754

>  <SCORE.RESTR>
0

>  <SCORE.RESTR.CAVITY>
0

>  <SCORE.RESTR.norm>
0

>  <SCORE.SYSTEM>
-8.82349

>  <SCORE.SYSTEM.CONST>
0

>  <SCORE.SYSTEM.DIHEDRAL>
2.86995

>  <SCORE.SYSTEM.POLAR>
-1.57644

>  <SCORE.SYSTEM.REPUL>
0.00379745

>  <SCORE.SYSTEM.VDW>
-4.91754

>  <SCORE.SYSTEM.norm>
-0.420166

>  <SCORE.heavy>
21

>  <SCORE.norm>
-1.41769

$$$$
SIA.pdb
  rDOCK(R)          3D
libRbt.so/2013.1/901 2013/11/27
 28 28  0  0  0  0  0  0  0  0999 V2000
   -2.8763   62.0543   -9.3138 C   0  0  0  0  0  0
   -3.4020   61.6188  -10.6840 C   0  0  0  0  0  0
   -2.9348   60.4277  -11.5108 C   0  0  0  0  0  0
   -3.9930   59.9328  -12.4848 C   0  0  0  0  0  0
   -4.9971   61.0219  -12.8526 C   0  0  0  0  0  0
   -5.7252   61.4675  -11.5805 C   0  0  0  0  0  0
   -6.6677   62.6548  -11.8526 C   0  0  0  0  0  0
   -7.2234   63.2641  -10.5640 C   0  0  0  0  0  0
   -8.5144   64.1049  -10.7203 C   0  0  0  0  0  0
   -6.2477   60.7083  -15.0165 C   0  0  0  0  0  0
   -7.2148   59.7709  -15.7203 C   0  0  0  0  0  0
   -5.9107   60.3843  -13.7835 N   0  0  0  0  0  0
   -2.3106   61.1175   -8.7203 O   0  0  0  0  0  0
   -2.9968   63.1025   -8.6528 O   0  0  0  0  0  0
   -3.2709   62.9650  -11.1466 O   0  0  0  0  0  0
   -3.3235   59.5504  -13.6635 O   0  0  0  0  0  0
   -4.7916   61.9565  -10.5950 O   0  0  0  0  0  0
   -5.9994   63.7070  -12.5301 O   0  0  0  0  0  0
   -7.5629   62.1505   -9.7689 O   0  0  0  0  0  0
   -9.6305   63.2764  -11.0073 O   0  0  0  0  0  0
   -5.8045   61.7408  -15.5220 O   0  0  0  0  0  0
   -6.2445   59.5503  -13.3725 H   0  0  0  0  0  0
   -3.9743   63.0365  -11.8205 H   0  0  0  0  0  0
   -4.0030   59.1843  -14.2640 H   0  0  0  0  0  0
   -6.8927   64.0497  -12.7518 H   0  0  0  0  0  0
   -6.7072   61.7782   -9.5149 H   0  0  0  0  0  0
   -9.6018   62.6958  -10.2220 H   0  0  0  0  0  0
   -3.4909   63.8200   -8.9981 H   0  0  0  0  0  0
  1 13  2  0  0  0
  1 14  1  0  0  0
  2  1  1  0  0  0
  2  3  1  0  0  0
  2 15  1  0  0  0
  2 17  1  0  0  0
  3  4  1  0  0  0
  4  5  1  0  0  0
  4 16  1  0  0  0
  5  6  1  0  0  0
  5 12  1  0  0  0
  6  7  1  0  0  0
  6 17  1  0  0  0
  7  8  1  0  0  0
  7 18  1  0  0  0
  8  9  1  0  0  0
  8 19  1  0  0  0
  9 20  1  0  0  0
 10 11  1  0  0  0
 10 12  1  0  0  0
 10 21  2  0  0  0
 12 22  1  0  0  0
 14 28  1  0  0  0
 15 23  1  0  0  0
 16 24  1  0  0  0
 18 25  1  0  0  0
 19 26  1  0  0  0
 20 27  1  0  0  0
M  END
>  <CHROM.0>
61.53736793,-177.91291742,-61.30796416,63.75356739,65.51928215,-47.81222323
-58.50142180,-140.62008124,-160.75523791,148.43598030,-177.25440753,-0.58697690

>  <CHROM.1>
-0.44318523,-21.23352642,-150.31733583,176.71386360,-123.30175316,-170.40358242
-159.70770046,163.15157944,71.04871013,70.58719076,58.14544725,-5.32537816
61.79134600,-11.77440134,-0.83013084,0.36537152,-2.05009791

>  <FORMUL>
      SIA    C11 H19 N1 O9

>  <HET>
 SIA  A 467      39

>  <HETNAM>
     SIA O-SIALIC ACID

>  <Name>
SIA.pdb

>  <RI>
0

>  <Rbt.Current_Directory>
/home/malgorzata/Desktop/rDOCK_IFD/Wyniki/12a_neuraminidase/IFD

>  <Rbt.Executable>
rbdock ($Id: //depot/dev/client3/rdock/2013.1/src/exe/rbdock.cxx#4 $)

>  <Rbt.Library>
libRbt.so (2013.1, Build901 2013/11/27)

>  <Rbt.Parameter_File>
/home/malgorzata/Desktop/rDock_2013.1_src/data/scripts/hard_docking.prm

>  <Rbt.Receptor>
cavity.prm

>  <SCORE>
-24.1783

>  <SCORE.INTER>
-1.357

>  <SCORE.INTER.CONST>
1

>  <SCORE.INTER.POLAR>
-0.833181

>  <SCORE.INTER.REPUL>
0

>  <SCORE.INTER.ROT>
5

>  <SCORE.INTER.VDW>
-8.92418

>  <SCORE.INTER.norm>
-0.0646188

>  <SCORE.INTRA>
-15.8804

>  <SCORE.INTRA.DIHEDRAL>
-16.3975

>  <SCORE.INTRA.DIHEDRAL.0>
24.6845

>  <SCORE.INTRA.POLAR>
-0.413322

>  <SCORE.INTRA.POLAR.0>
-0.967721

>  <SCORE.INTRA.REPUL>
0

>  <SCORE.INTRA.REPUL.0>
0

>  <SCORE.INTRA.VDW>
-6.27631

>  <SCORE.INTRA.VDW.0>
7.44847

>  <SCORE.INTRA.norm>
-0.756207

>  <SCORE.RESTR>
0.288061

>  <SCORE.RESTR.CAVITY>
0.288061

>  <SCORE.RESTR.norm>
0.0137172

>  <SCORE.SYSTEM>
-7.22901

>  <SCORE.SYSTEM.CONST>
0

>  <SCORE.SYSTEM.DIHEDRAL>
2.76347

>  <SCORE.SYSTEM.POLAR>
-1.56982

>  <SCORE.SYSTEM.REPUL>
0.221887

>  <SCORE.SYSTEM.VDW>
-4.38279

>  <SCORE.SYSTEM.norm>
-0.344239

>  <SCORE.heavy>
21

>  <SCORE.norm>
-1.15135

$$$$
SIA.pdb
  rDOCK(R)          3D
libRbt.so/2013.1/901 2013/11/27
 28 28  0  0  0  0  0  0  0  0999 V2000
   -6.1012   62.1768   -7.6454 C   0  0  0  0  0  0
   -4.5902   62.3661   -7.4882 C   0  0  0  0  0  0
   -3.7848   63.6218   -7.7964 C   0  0  0  0  0  0
   -2.4809   63.6938   -7.0166 C   0  0  0  0  0  0
   -1.9837   62.3154   -6.5898 C   0  0  0  0  0  0
   -3.0291   61.6811   -5.6668 C   0  0  0  0  0  0
   -2.6542   60.2345   -5.2945 C   0  0  0  0  0  0
   -3.7441   59.5439   -4.4725 C   0  0  0  0  0  0
   -3.3678   58.1620   -3.8836 C   0  0  0  0  0  0
    0.3061   61.8014   -5.6747 C   0  0  0  0  0  0
    1.4637   62.4257   -4.9135 C   0  0  0  0  0  0
   -0.7440   62.5723   -5.8793 N   0  0  0  0  0  0
   -6.6739   62.1204   -6.5413 O   0  0  0  0  0  0
   -6.8319   61.9660   -8.6311 O   0  0  0  0  0  0
   -4.3779   61.1355   -8.1841 O   0  0  0  0  0  0
   -1.5149   64.2510   -7.8771 O   0  0  0  0  0  0
   -4.3058   61.5720   -6.3299 O   0  0  0  0  0  0
   -2.4623   59.4317   -6.4484 O   0  0  0  0  0  0
   -3.9529   60.4047   -3.3757 O   0  0  0  0  0  0
   -3.4207   57.1521   -4.8794 O   0  0  0  0  0  0
    0.2955   60.6339   -6.0683 O   0  0  0  0  0  0
   -0.7419   63.5153   -5.5848 H   0  0  0  0  0  0
   -3.6012   60.7558   -7.7296 H   0  0  0  0  0  0
   -1.4340   63.6414   -8.6375 H   0  0  0  0  0  0
   -1.5366   59.7597   -6.4481 H   0  0  0  0  0  0
   -4.7826   60.0910   -2.9903 H   0  0  0  0  0  0
   -2.8131   57.5458   -5.5354 H   0  0  0  0  0  0
   -6.4590   61.9202   -9.4895 H   0  0  0  0  0  0
  1 13  2  0  0  0
  1 14  1  0  0  0
  2  1  1  0  0  0
  2  3  1  0  0  0
  2 15  1  0  0  0
  2 17  1  0  0  0
  3  4  1  0  0  0
  4  5  1  0  0  0
  4 16  1  0  0  0
  5  6  1  0  0  0
  5 12  1  0  0  0
  6  7  1  0  0  0
  6 17  1  0  0  0
  7  8  1  0  0  0
  7 18  1  0  0  0
  8  9  1  0  0  0
  8 19  1  0  0  0
  9 20  1  0  0  0
 10 11  1  0  0  0
 10 12  1  0  0  0
 10 21  2  0  0  0
 12 22  1  0  0  0
 14 28  1  0  0  0
 15 23  1  0  0  0
 16 24  1  0  0  0
 18 25  1  0  0  0
 19 26  1  0  0  0
 20 27  1  0  0  0
M  END
>  <CHROM.0>
-177.81881102,-177.13604260,-61.30796416,63.38040387,62.96641917,54.44545063
54.65160854,82.50945923,121.06757917,-105.84789187,-176.03544796,22.70898098

>  <CHROM.1>
-1.75547202,-108.69288696,-143.87705162,-61.23426609,-155.04079095,-175.05954637
-171.57529637,86.20637449,-77.28328957,165.92504051,55.49786174,-3.06452877
61.34804200,-6.23452981,-2.77307964,0.24660427,2.54558852

>  <FORMUL>
      SIA    C11 H19 N1 O9

>  <HET>
 SIA  A 467      39

>  <HETNAM>
     SIA O-SIALIC ACID

>  <Name>
SIA.pdb

>  <RI>
0

>  <Rbt.Current_Directory>
/home/malgorzata/Desktop/rDOCK_IFD/Wyniki/12a_neuraminidase/IFD

>  <Rbt.Executable>
rbdock ($Id: //depot/dev/client3/rdock/2013.1/src/exe/rbdock.cxx#4 $)

>  <Rbt.Library>
libRbt.so (2013.1, Build901 2013/11/27)

>  <Rbt.Parameter_File>
/home/malgorzata/Desktop/rDock_2013.1_src/data/scripts/hard_docking.prm

>  <Rbt.Receptor>
cavity.prm

>  <SCORE>
-32.4545

>  <SCORE.INTER>
-10.8612

>  <SCORE.INTER.CONST>
1

>  <SCORE.INTER.POLAR>
-4.39641

>  <SCORE.INTER.REPUL>
0.0106691

>  <SCORE.INTER.ROT>
5

>  <SCORE.INTER.VDW>
-6.36676

>  <SCORE.INTER.norm>
-0.5172

>  <SCORE.INTRA>
-17.9605

>  <SCORE.INTRA.DIHEDRAL>
-14.4515

>  <SCORE.INTRA.DIHEDRAL.0>
24.6845

>  <SCORE.INTRA.POLAR>
-1.1339

>  <SCORE.INTRA.POLAR.0>
-0.967721

>  <SCORE.INTRA.REPUL>
0

>  <SCORE.INTRA.REPUL.0>
0

>  <SCORE.INTRA.VDW>
-6.8795

>  <SCORE.INTRA.VDW.0>
7.44847

>  <SCORE.INTRA.norm>
-0.855262

>  <SCORE.RESTR>
0.417218

>  <SCORE.RESTR.CAVITY>
0.417218

>  <SCORE.RESTR.norm>
0.0198675

>  <SCORE.SYSTEM>
-4.05004

>  <SCORE.SYSTEM.CONST>
0

>  <SCORE.SYSTEM.DIHEDRAL>
2.72295

>  <SCORE.SYSTEM.POLAR>
-0.784329

>  <SCORE.SYSTEM.REPUL>
0.295489

>  <SCORE.SYSTEM.VDW>
-4.22224

>  <SCORE.SYSTEM.norm>
-0.192859

>  <SCORE.heavy>
21

>  <SCORE.norm>
-1.54545

$$$$
