S58.pdb
  rDOCK(R)          3D
libRbt.so/2013.1/901 2013/11/27
 28 30  0  0  0  0  0  0  0  0999 V2000
   22.6852   29.8567   27.1532 C   0  0  0  0  0  0
   24.0034   30.1345   27.3516 C   0  0  0  0  0  0
   22.5510   28.3762   27.2782 C   0  0  0  0  0  0
   21.3358   27.5256   27.0588 C   0  0  0  0  0  0
   25.9117   28.7796   28.1628 C   0  0  0  0  0  0
   26.9113   28.2333   27.3479 C   0  0  0  0  0  0
   28.1966   28.0883   27.8483 C   0  0  0  0  0  0
   28.4811   28.4969   29.1716 C   0  0  0  0  0  0
   27.4762   29.0456   29.9860 C   0  0  0  0  0  0
   26.1826   29.1847   29.4772 C   0  0  0  0  0  0
   24.6055   31.4997   27.2578 C   0  0  0  0  0  0
   23.7628   32.6395   27.2984 C   0  0  0  0  0  0
   24.3206   33.9299   27.3632 C   0  0  0  0  0  0
   25.7037   34.0871   27.3925 C   0  0  0  0  0  0
   26.5412   32.9684   27.3220 C   0  0  0  0  0  0
   25.9919   31.6662   27.2557 C   0  0  0  0  0  0
   24.6725   28.9585   27.6042 N   0  0  0  0  0  0
   23.7274   27.8868   27.5614 N   0  0  0  0  0  0
   31.2047   27.7853   28.5213 N   0  0  0  0  0  0
   30.1535   27.3920   30.9175 O   0  0  0  0  0  0
   30.5953   29.6106   30.3088 O   0  0  0  0  0  0
   26.4189   35.7624   27.6923 Br  0  0  0  0  0  0
   21.7139   26.3207   26.5637 F   0  0  0  0  0  0
   20.4802   28.1539   26.2374 F   0  0  0  0  0  0
   20.7453   27.3382   28.2444 F   0  0  0  0  0  0
   30.1713   28.3233   29.8341 S   0  0  0  0  0  0
   32.1761   27.8315   28.6189 H   0  0  0  0  0  0
   30.8096   27.4371   27.6931 H   0  0  0  0  0  0
  1  3  1  0  0  0
  2  1  2  0  0  0
  2 17  1  0  0  0
  3 18  2  0  0  0
  3  4  1  0  0  0
  4 23  1  0  0  0
  4 25  1  0  0  0
  5 17  1  0  0  0
  5  6  2  0  0  0
  7  6  1  0  0  0
  8  7  2  0  0  0
  9 10  2  0  0  0
  9  8  1  0  0  0
 10  5  1  0  0  0
 11  2  1  0  0  0
 12 11  1  0  0  0
 13 12  2  0  0  0
 14 15  2  0  0  0
 14 13  1  0  0  0
 15 16  1  0  0  0
 16 11  2  0  0  0
 17 18  1  0  0  0
 19 28  1  0  0  0
 20 26  2  0  0  0
 22 14  1  0  0  0
 24  4  1  0  0  0
 26  8  1  0  0  0
 26 19  1  0  0  0
 26 21  2  0  0  0
 27 19  1  0  0  0
M  END
>  <CHROM.0>
-81.61245034,-84.27675947,-64.70146327

>  <CHROM.1>
147.09582831,-114.39816260,16.66985193,5.93518667,165.91368566,25.81279862
30.41021946,28.03886718,2.45333229,0.30478967,3.02435318

>  <FORMUL>
      S58    C16 H11 Br1 F3 N3 O2 S1

>  <HET>
 S58  A 701      28

>  <HETNAM>
     S58 1-PHENYLSULFONAMIDE-3-TRIFLUOROMETHYL-5-PARABROMOPHENYL
   2 S58 PYRAZOLE

>  <Name>
S58.pdb

>  <RI>
0

>  <Rbt.Current_Directory>
/home/malgorzata/Desktop/rDOCK_IFD/Wyniki/3a_COX2

>  <Rbt.Executable>
rbdock ($Id: //depot/dev/client3/rdock/2013.1/src/exe/rbdock.cxx#4 $)

>  <Rbt.Library>
libRbt.so (2013.1, Build901 2013/11/27)

>  <Rbt.Parameter_File>
/home/malgorzata/Desktop/rDock_2013.1_src/data/scripts/soft_docking.prm

>  <Rbt.Receptor>
cavity.prm

>  <SCORE>
-23.7364

>  <SCORE.INTER>
-19.3315

>  <SCORE.INTER.CONST>
1

>  <SCORE.INTER.POLAR>
-1.58417

>  <SCORE.INTER.REPUL>
0

>  <SCORE.INTER.ROT>
5

>  <SCORE.INTER.VDW>
-24.3453

>  <SCORE.INTER.norm>
-0.743517

>  <SCORE.INTRA>
-0.754794

>  <SCORE.INTRA.DIHEDRAL>
-2.90746

>  <SCORE.INTRA.DIHEDRAL.0>
18.1022

>  <SCORE.INTRA.POLAR>
0

>  <SCORE.INTRA.POLAR.0>
0

>  <SCORE.INTRA.REPUL>
0

>  <SCORE.INTRA.REPUL.0>
0

>  <SCORE.INTRA.VDW>
-0.173303

>  <SCORE.INTRA.VDW.0>
-2.81782

>  <SCORE.INTRA.norm>
-0.0290305

>  <SCORE.RESTR>
0.176328

>  <SCORE.RESTR.CAVITY>
0.0352657

>  <SCORE.RESTR.norm>
0.00678186

>  <SCORE.SYSTEM>
-3.82652

>  <SCORE.SYSTEM.CONST>
0

>  <SCORE.SYSTEM.DIHEDRAL>
0.898005

>  <SCORE.SYSTEM.POLAR>
-0.808521

>  <SCORE.SYSTEM.VDW>
-1.52655

>  <SCORE.SYSTEM.norm>
-0.147174

>  <SCORE.heavy>
26

>  <SCORE.norm>
-0.91294

$$$$
S58.pdb
  rDOCK(R)          3D
libRbt.so/2013.1/901 2013/11/27
 28 30  0  0  0  0  0  0  0  0999 V2000
   23.2322   27.9025   27.0985 C   0  0  0  0  0  0
   24.4237   28.5616   27.0881 C   0  0  0  0  0  0
   23.5422   26.4934   27.4776 C   0  0  0  0  0  0
   22.6137   25.3181   27.5480 C   0  0  0  0  0  0
   26.6947   27.9583   27.8717 C   0  0  0  0  0  0
   26.8442   28.9441   28.8554 C   0  0  0  0  0  0
   28.1061   29.2169   29.3623 C   0  0  0  0  0  0
   29.2227   28.4944   28.8823 C   0  0  0  0  0  0
   29.0688   27.5054   27.8963 C   0  0  0  0  0  0
   27.7957   27.2388   27.3868 C   0  0  0  0  0  0
   24.5959   29.9955   26.7017 C   0  0  0  0  0  0
   23.5528   30.9200   26.9632 C   0  0  0  0  0  0
   23.7553   32.2955   26.7452 C   0  0  0  0  0  0
   24.9850   32.7499   26.2762 C   0  0  0  0  0  0
   26.0082   31.8403   25.9872 C   0  0  0  0  0  0
   25.8160   30.4551   26.2016 C   0  0  0  0  0  0
   25.4211   27.6830   27.4456 N   0  0  0  0  0  0
   24.8268   26.4064   27.6921 N   0  0  0  0  0  0
   30.9028   30.5020   30.1047 N   0  0  0  0  0  0
   31.8556   28.5991   28.5321 O   0  0  0  0  0  0
   31.1099   27.9419   30.6534 O   0  0  0  0  0  0
   25.3098   34.5654   26.1977 Br  0  0  0  0  0  0
   23.3195   24.2064   27.8735 F   0  0  0  0  0  0
   21.9701   25.1733   26.3790 F   0  0  0  0  0  0
   21.7186   25.5581   28.5127 F   0  0  0  0  0  0
   30.8840   28.8359   29.5526 S   0  0  0  0  0  0
   31.3137   30.7235   30.9635 H   0  0  0  0  0  0
   30.5049   31.2094   29.5529 H   0  0  0  0  0  0
  1  3  1  0  0  0
  2  1  2  0  0  0
  2 17  1  0  0  0
  3 18  2  0  0  0
  3  4  1  0  0  0
  4 23  1  0  0  0
  4 25  1  0  0  0
  5 17  1  0  0  0
  5  6  2  0  0  0
  7  6  1  0  0  0
  8  7  2  0  0  0
  9 10  2  0  0  0
  9  8  1  0  0  0
 10  5  1  0  0  0
 11  2  1  0  0  0
 12 11  1  0  0  0
 13 12  2  0  0  0
 14 15  2  0  0  0
 14 13  1  0  0  0
 15 16  1  0  0  0
 16 11  2  0  0  0
 17 18  1  0  0  0
 19 28  1  0  0  0
 20 26  2  0  0  0
 22 14  1  0  0  0
 24  4  1  0  0  0
 26  8  1  0  0  0
 26 19  1  0  0  0
 26 21  2  0  0  0
 27 19  1  0  0  0
M  END
>  <CHROM.0>
-31.69589793,144.10487793,62.58584768

>  <CHROM.1>
177.04105493,46.55855264,31.83350838,-27.19447559,136.27481825,26.11942133
29.41508065,27.62728314,2.00696767,0.32363810,2.91026345

>  <FORMUL>
      S58    C16 H11 Br1 F3 N3 O2 S1

>  <HET>
 S58  A 701      28

>  <HETNAM>
     S58 1-PHENYLSULFONAMIDE-3-TRIFLUOROMETHYL-5-PARABROMOPHENYL
   2 S58 PYRAZOLE

>  <Name>
S58.pdb

>  <RI>
0

>  <Rbt.Current_Directory>
/home/malgorzata/Desktop/rDOCK_IFD/Wyniki/3a_COX2

>  <Rbt.Executable>
rbdock ($Id: //depot/dev/client3/rdock/2013.1/src/exe/rbdock.cxx#4 $)

>  <Rbt.Library>
libRbt.so (2013.1, Build901 2013/11/27)

>  <Rbt.Parameter_File>
/home/malgorzata/Desktop/rDock_2013.1_src/data/scripts/soft_docking.prm

>  <Rbt.Receptor>
cavity.prm

>  <SCORE>
-16.6894

>  <SCORE.INTER>
-16.0776

>  <SCORE.INTER.CONST>
1

>  <SCORE.INTER.POLAR>
-1.63294

>  <SCORE.INTER.REPUL>
0

>  <SCORE.INTER.ROT>
5

>  <SCORE.INTER.VDW>
-20.9256

>  <SCORE.INTER.norm>
-0.618368

>  <SCORE.INTRA>
-0.883085

>  <SCORE.INTRA.DIHEDRAL>
-3.79366

>  <SCORE.INTRA.DIHEDRAL.0>
18.1022

>  <SCORE.INTRA.POLAR>
0

>  <SCORE.INTRA.POLAR.0>
0

>  <SCORE.INTRA.REPUL>
0

>  <SCORE.INTRA.REPUL.0>
0

>  <SCORE.INTRA.VDW>
-0.124353

>  <SCORE.INTRA.VDW.0>
-2.81782

>  <SCORE.INTRA.norm>
-0.0339648

>  <SCORE.RESTR>
2.23862

>  <SCORE.RESTR.CAVITY>
0.447724

>  <SCORE.RESTR.norm>
0.0861008

>  <SCORE.SYSTEM>
-1.96738

>  <SCORE.SYSTEM.CONST>
0

>  <SCORE.SYSTEM.DIHEDRAL>
0.886425

>  <SCORE.SYSTEM.POLAR>
-0.170068

>  <SCORE.SYSTEM.VDW>
-1.83236

>  <SCORE.SYSTEM.norm>
-0.0756684

>  <SCORE.heavy>
26

>  <SCORE.norm>
-0.641901

$$$$
S58.pdb
  rDOCK(R)          3D
libRbt.so/2013.1/901 2013/11/27
 28 30  0  0  0  0  0  0  0  0999 V2000
   25.2984   32.5156   28.5498 C   0  0  0  0  0  0
   25.4241   31.1599   28.5702 C   0  0  0  0  0  0
   24.0406   32.8032   27.8010 C   0  0  0  0  0  0
   23.4729   34.1326   27.4023 C   0  0  0  0  0  0
   23.8895   29.3119   27.9659 C   0  0  0  0  0  0
   22.6582   29.0433   27.3548 C   0  0  0  0  0  0
   22.1813   27.7413   27.3232 C   0  0  0  0  0  0
   22.9455   26.7034   27.9045 C   0  0  0  0  0  0
   24.1808   26.9762   28.5156 C   0  0  0  0  0  0
   24.6531   28.2906   28.5480 C   0  0  0  0  0  0
   26.5797   30.4247   29.1694 C   0  0  0  0  0  0
   27.6296   29.9705   28.3312 C   0  0  0  0  0  0
   28.7926   29.4121   28.8934 C   0  0  0  0  0  0
   28.9145   29.3102   30.2767 C   0  0  0  0  0  0
   27.8698   29.7283   31.1083 C   0  0  0  0  0  0
   26.6954   30.2904   30.5545 C   0  0  0  0  0  0
   24.3466   30.6035   27.9190 N   0  0  0  0  0  0
   23.5011   31.6631   27.4652 N   0  0  0  0  0  0
   22.6418   24.3570   26.2462 N   0  0  0  0  0  0
   20.9412   24.9785   28.1759 O   0  0  0  0  0  0
   23.0603   24.2289   28.8359 O   0  0  0  0  0  0
   30.5236   28.7769   31.0075 Br  0  0  0  0  0  0
   23.7236   34.3522   26.0874 F   0  0  0  0  0  0
   23.9898   35.1008   28.1750 F   0  0  0  0  0  0
   22.1488   34.0866   27.5867 F   0  0  0  0  0  0
   22.3337   24.9861   27.8557 S   0  0  0  0  0  0
   22.0309   24.5753   25.5152 H   0  0  0  0  0  0
   23.4256   23.7904   26.0795 H   0  0  0  0  0  0
  1  3  1  0  0  0
  2  1  2  0  0  0
  2 17  1  0  0  0
  3 18  2  0  0  0
  3  4  1  0  0  0
  4 23  1  0  0  0
  4 25  1  0  0  0
  5 17  1  0  0  0
  5  6  2  0  0  0
  7  6  1  0  0  0
  8  7  2  0  0  0
  9 10  2  0  0  0
  9  8  1  0  0  0
 10  5  1  0  0  0
 11  2  1  0  0  0
 12 11  1  0  0  0
 13 12  2  0  0  0
 14 15  2  0  0  0
 14 13  1  0  0  0
 15 16  1  0  0  0
 16 11  2  0  0  0
 17 18  1  0  0  0
 19 28  1  0  0  0
 20 26  2  0  0  0
 22 14  1  0  0  0
 24  4  1  0  0  0
 26  8  1  0  0  0
 26 19  1  0  0  0
 26 21  2  0  0  0
 27 19  1  0  0  0
M  END
>  <CHROM.0>
117.70861048,176.69424428,-50.76452849

>  <CHROM.1>
102.15855932,171.23688508,-97.93119172,78.10564095,-80.89192550,25.36370378
29.40551114,28.68114122,0.22276633,-0.41751478,-0.09463775

>  <FORMUL>
      S58    C16 H11 Br1 F3 N3 O2 S1

>  <HET>
 S58  A 701      28

>  <HETNAM>
     S58 1-PHENYLSULFONAMIDE-3-TRIFLUOROMETHYL-5-PARABROMOPHENYL
   2 S58 PYRAZOLE

>  <Name>
S58.pdb

>  <RI>
0

>  <Rbt.Current_Directory>
/home/malgorzata/Desktop/rDOCK_IFD/Wyniki/3a_COX2

>  <Rbt.Executable>
rbdock ($Id: //depot/dev/client3/rdock/2013.1/src/exe/rbdock.cxx#4 $)

>  <Rbt.Library>
libRbt.so (2013.1, Build901 2013/11/27)

>  <Rbt.Parameter_File>
/home/malgorzata/Desktop/rDock_2013.1_src/data/scripts/soft_docking.prm

>  <Rbt.Receptor>
cavity.prm

>  <SCORE>
-20.4724

>  <SCORE.INTER>
-17.0582

>  <SCORE.INTER.CONST>
1

>  <SCORE.INTER.POLAR>
-1.44957

>  <SCORE.INTER.REPUL>
0

>  <SCORE.INTER.ROT>
5

>  <SCORE.INTER.VDW>
-22.5297

>  <SCORE.INTER.norm>
-0.656084

>  <SCORE.INTRA>
-0.105558

>  <SCORE.INTRA.DIHEDRAL>
-2.37126

>  <SCORE.INTRA.DIHEDRAL.0>
18.1022

>  <SCORE.INTRA.POLAR>
0

>  <SCORE.INTRA.POLAR.0>
0

>  <SCORE.INTRA.REPUL>
0

>  <SCORE.INTRA.REPUL.0>
0

>  <SCORE.INTRA.VDW>
0.368694

>  <SCORE.INTRA.VDW.0>
-2.81782

>  <SCORE.INTRA.norm>
-0.00405991

>  <SCORE.RESTR>
0.369271

>  <SCORE.RESTR.CAVITY>
0.0738542

>  <SCORE.RESTR.norm>
0.0142027

>  <SCORE.SYSTEM>
-3.67796

>  <SCORE.SYSTEM.CONST>
0

>  <SCORE.SYSTEM.DIHEDRAL>
1.22197

>  <SCORE.SYSTEM.POLAR>
-0.771236

>  <SCORE.SYSTEM.VDW>
-1.66675

>  <SCORE.SYSTEM.norm>
-0.14146

>  <SCORE.heavy>
26

>  <SCORE.norm>
-0.787401

$$$$
S58.pdb
  rDOCK(R)          3D
libRbt.so/2013.1/901 2013/11/27
 28 30  0  0  0  0  0  0  0  0999 V2000
   22.4691   30.2791   27.2542 C   0  0  0  0  0  0
   23.2182   29.7172   28.2429 C   0  0  0  0  0  0
   23.2518   31.4469   26.7553 C   0  0  0  0  0  0
   22.8543   32.4721   25.7357 C   0  0  0  0  0  0
   25.5543   30.0570   28.9926 C   0  0  0  0  0  0
   26.1473   28.8565   28.5818 C   0  0  0  0  0  0
   27.3573   28.4676   29.1370 C   0  0  0  0  0  0
   27.9769   29.2893   30.1066 C   0  0  0  0  0  0
   27.3798   30.4935   30.5155 C   0  0  0  0  0  0
   26.1588   30.8770   29.9555 C   0  0  0  0  0  0
   22.7909   28.5465   29.0687 C   0  0  0  0  0  0
   23.3658   27.2730   28.8264 C   0  0  0  0  0  0
   23.0888   26.1960   29.6888 C   0  0  0  0  0  0
   22.2519   26.3830   30.7857 C   0  0  0  0  0  0
   21.6572   27.6289   31.0133 C   0  0  0  0  0  0
   21.9275   28.7189   30.1526 C   0  0  0  0  0  0
   24.3896   30.4282   28.3719 N   0  0  0  0  0  0
   24.3761   31.4917   27.4168 N   0  0  0  0  0  0
   30.7699   28.8064   29.5466 N   0  0  0  0  0  0
   29.4371   27.4997   31.4223 O   0  0  0  0  0  0
   29.9186   29.7531   31.8438 O   0  0  0  0  0  0
   22.0665   25.0277   32.0252 Br  0  0  0  0  0  0
   21.8465   31.9800   24.9726 F   0  0  0  0  0  0
   23.9184   32.8144   24.9927 F   0  0  0  0  0  0
   22.4119   33.5523   26.3891 F   0  0  0  0  0  0
   29.5749   28.7936   30.8322 S   0  0  0  0  0  0
   30.7397   29.5049   28.8636 H   0  0  0  0  0  0
   31.4676   28.1169   29.5145 H   0  0  0  0  0  0
  1  3  1  0  0  0
  2  1  2  0  0  0
  2 17  1  0  0  0
  3 18  2  0  0  0
  3  4  1  0  0  0
  4 23  1  0  0  0
  4 25  1  0  0  0
  5 17  1  0  0  0
  5  6  2  0  0  0
  7  6  1  0  0  0
  8  7  2  0  0  0
  9 10  2  0  0  0
  9  8  1  0  0  0
 10  5  1  0  0  0
 11  2  1  0  0  0
 12 11  1  0  0  0
 13 12  2  0  0  0
 14 15  2  0  0  0
 14 13  1  0  0  0
 15 16  1  0  0  0
 16 11  2  0  0  0
 17 18  1  0  0  0
 19 28  1  0  0  0
 20 26  2  0  0  0
 22 14  1  0  0  0
 24  4  1  0  0  0
 26  8  1  0  0  0
 26 19  1  0  0  0
 26 21  2  0  0  0
 27 19  1  0  0  0
M  END
>  <CHROM.0>
42.83136197,76.80694703,-55.33925943

>  <CHROM.1>
-20.18424322,55.05552965,105.37669663,64.85770182,38.26204873,24.66821028
28.91404335,29.38871938,1.67110021,-0.20800194,-0.70477512

>  <FORMUL>
      S58    C16 H11 Br1 F3 N3 O2 S1

>  <HET>
 S58  A 701      28

>  <HETNAM>
     S58 1-PHENYLSULFONAMIDE-3-TRIFLUOROMETHYL-5-PARABROMOPHENYL
   2 S58 PYRAZOLE

>  <Name>
S58.pdb

>  <RI>
0

>  <Rbt.Current_Directory>
/home/malgorzata/Desktop/rDOCK_IFD/Wyniki/3a_COX2

>  <Rbt.Executable>
rbdock ($Id: //depot/dev/client3/rdock/2013.1/src/exe/rbdock.cxx#4 $)

>  <Rbt.Library>
libRbt.so (2013.1, Build901 2013/11/27)

>  <Rbt.Parameter_File>
/home/malgorzata/Desktop/rDock_2013.1_src/data/scripts/soft_docking.prm

>  <Rbt.Receptor>
cavity.prm

>  <SCORE>
-16.6525

>  <SCORE.INTER>
-13.1124

>  <SCORE.INTER.CONST>
1

>  <SCORE.INTER.POLAR>
-2.15668

>  <SCORE.INTER.REPUL>
0

>  <SCORE.INTER.ROT>
5

>  <SCORE.INTER.VDW>
-16.1797

>  <SCORE.INTER.norm>
-0.504325

>  <SCORE.INTRA>
0.951916

>  <SCORE.INTRA.DIHEDRAL>
7.31955

>  <SCORE.INTRA.DIHEDRAL.0>
18.1022

>  <SCORE.INTRA.POLAR>
0

>  <SCORE.INTRA.POLAR.0>
0

>  <SCORE.INTRA.REPUL>
0

>  <SCORE.INTRA.REPUL.0>
0

>  <SCORE.INTRA.VDW>
-0.511995

>  <SCORE.INTRA.VDW.0>
-2.81782

>  <SCORE.INTRA.norm>
0.0366121

>  <SCORE.RESTR>
0.34603

>  <SCORE.RESTR.CAVITY>
0.0692059

>  <SCORE.RESTR.norm>
0.0133088

>  <SCORE.SYSTEM>
-4.83801

>  <SCORE.SYSTEM.CONST>
0

>  <SCORE.SYSTEM.DIHEDRAL>
0.861816

>  <SCORE.SYSTEM.POLAR>
-1.04335

>  <SCORE.SYSTEM.VDW>
-1.72155

>  <SCORE.SYSTEM.norm>
-0.186077

>  <SCORE.heavy>
26

>  <SCORE.norm>
-0.640481

$$$$
S58.pdb
  rDOCK(R)          3D
libRbt.so/2013.1/901 2013/11/27
 28 30  0  0  0  0  0  0  0  0999 V2000
   22.0978   27.5712   27.5096 C   0  0  0  0  0  0
   23.2699   28.2446   27.6742 C   0  0  0  0  0  0
   22.3606   26.1700   27.9488 C   0  0  0  0  0  0
   21.4444   24.9843   27.8900 C   0  0  0  0  0  0
   25.3997   27.6769   28.8042 C   0  0  0  0  0  0
   25.3428   28.1755   30.1118 C   0  0  0  0  0  0
   26.5213   28.4328   30.7963 C   0  0  0  0  0  0
   27.7628   28.1851   30.1668 C   0  0  0  0  0  0
   27.8163   27.6838   28.8554 C   0  0  0  0  0  0
   26.6255   27.4311   28.1700 C   0  0  0  0  0  0
   23.4845   29.6764   27.3015 C   0  0  0  0  0  0
   22.4139   30.5983   27.4231 C   0  0  0  0  0  0
   22.6376   31.9730   27.2217 C   0  0  0  0  0  0
   23.9149   32.4292   26.9072 C   0  0  0  0  0  0
   24.9692   31.5219   26.7557 C   0  0  0  0  0  0
   24.7562   30.1374   26.9548 C   0  0  0  0  0  0
   24.2096   27.3818   28.1910 N   0  0  0  0  0  0
   23.5978   26.1007   28.3588 N   0  0  0  0  0  0
   30.6163   28.5381   29.8829 N   0  0  0  0  0  0
   29.5101   27.4853   32.0439 O   0  0  0  0  0  0
   29.2000   29.7833   31.7108 O   0  0  0  0  0  0
   24.2411   34.2455   26.8562 Br  0  0  0  0  0  0
   22.0724   23.9620   27.2572 F   0  0  0  0  0  0
   20.2998   25.3210   27.2751 F   0  0  0  0  0  0
   21.1726   24.6117   29.1457 F   0  0  0  0  0  0
   29.3179   28.5069   31.0636 S   0  0  0  0  0  0
   30.4314   28.8228   28.9663 H   0  0  0  0  0  0
   31.5253   28.2734   30.1417 H   0  0  0  0  0  0
  1  3  1  0  0  0
  2  1  2  0  0  0
  2 17  1  0  0  0
  3 18  2  0  0  0
  3  4  1  0  0  0
  4 23  1  0  0  0
  4 25  1  0  0  0
  5 17  1  0  0  0
  5  6  2  0  0  0
  7  6  1  0  0  0
  8  7  2  0  0  0
  9 10  2  0  0  0
  9  8  1  0  0  0
 10  5  1  0  0  0
 11  2  1  0  0  0
 12 11  1  0  0  0
 13 12  2  0  0  0
 14 15  2  0  0  0
 14 13  1  0  0  0
 15 16  1  0  0  0
 16 11  2  0  0  0
 17 18  1  0  0  0
 19 28  1  0  0  0
 20 26  2  0  0  0
 22 14  1  0  0  0
 24  4  1  0  0  0
 26  8  1  0  0  0
 26 19  1  0  0  0
 26 21  2  0  0  0
 27 19  1  0  0  0
M  END
>  <CHROM.0>
125.47465403,-60.84198687,70.37861411

>  <CHROM.1>
127.15592455,74.30954386,33.53017565,-164.20664158,29.32915013,24.88215006
29.08337043,28.43412813,1.95899761,0.45430522,2.88233738

>  <FORMUL>
      S58    C16 H11 Br1 F3 N3 O2 S1

>  <HET>
 S58  A 701      28

>  <HETNAM>
     S58 1-PHENYLSULFONAMIDE-3-TRIFLUOROMETHYL-5-PARABROMOPHENYL
   2 S58 PYRAZOLE

>  <Name>
S58.pdb

>  <RI>
0

>  <Rbt.Current_Directory>
/home/malgorzata/Desktop/rDOCK_IFD/Wyniki/3a_COX2

>  <Rbt.Executable>
rbdock ($Id: //depot/dev/client3/rdock/2013.1/src/exe/rbdock.cxx#4 $)

>  <Rbt.Library>
libRbt.so (2013.1, Build901 2013/11/27)

>  <Rbt.Parameter_File>
/home/malgorzata/Desktop/rDock_2013.1_src/data/scripts/soft_docking.prm

>  <Rbt.Receptor>
cavity.prm

>  <SCORE>
-16.5146

>  <SCORE.INTER>
-15.2925

>  <SCORE.INTER.CONST>
1

>  <SCORE.INTER.POLAR>
-2.18938

>  <SCORE.INTER.REPUL>
0

>  <SCORE.INTER.ROT>
5

>  <SCORE.INTER.VDW>
-18.2486

>  <SCORE.INTER.norm>
-0.588172

>  <SCORE.INTRA>
-0.38153

>  <SCORE.INTRA.DIHEDRAL>
0.32202

>  <SCORE.INTRA.DIHEDRAL.0>
18.1022

>  <SCORE.INTRA.POLAR>
0

>  <SCORE.INTRA.POLAR.0>
0

>  <SCORE.INTRA.REPUL>
0

>  <SCORE.INTRA.REPUL.0>
0

>  <SCORE.INTRA.VDW>
-0.445934

>  <SCORE.INTRA.VDW.0>
-2.81782

>  <SCORE.INTRA.norm>
-0.0146742

>  <SCORE.RESTR>
0.943249

>  <SCORE.RESTR.CAVITY>
0.18865

>  <SCORE.RESTR.norm>
0.0362788

>  <SCORE.SYSTEM>
-1.78382

>  <SCORE.SYSTEM.CONST>
0

>  <SCORE.SYSTEM.DIHEDRAL>
1.3117

>  <SCORE.SYSTEM.POLAR>
-0.167157

>  <SCORE.SYSTEM.VDW>
-1.87133

>  <SCORE.SYSTEM.norm>
-0.0686083

>  <SCORE.heavy>
26

>  <SCORE.norm>
-0.635176

$$$$
S58.pdb
  rDOCK(R)          3D
libRbt.so/2013.1/901 2013/11/27
 28 30  0  0  0  0  0  0  0  0999 V2000
   22.6127   28.7477   27.0634 C   0  0  0  0  0  0
   23.8565   29.2550   27.2870 C   0  0  0  0  0  0
   22.6999   27.2897   27.3663 C   0  0  0  0  0  0
   21.6471   26.2351   27.1984 C   0  0  0  0  0  0
   25.8926   28.3280   28.3501 C   0  0  0  0  0  0
   26.8831   27.4118   27.9743 C   0  0  0  0  0  0
   28.1448   27.4987   28.5436 C   0  0  0  0  0  0
   28.4149   28.5123   29.4917 C   0  0  0  0  0  0
   27.4193   29.4305   29.8654 C   0  0  0  0  0  0
   26.1492   29.3344   29.2915 C   0  0  0  0  0  0
   24.2462   30.6789   27.0513 C   0  0  0  0  0  0
   23.2669   31.6988   27.1602 C   0  0  0  0  0  0
   23.6446   33.0527   27.0908 C   0  0  0  0  0  0
   24.9842   33.3913   26.9198 C   0  0  0  0  0  0
   25.9515   32.3898   26.7811 C   0  0  0  0  0  0
   25.5836   31.0252   26.8484 C   0  0  0  0  0  0
   24.6803   28.2392   27.7160 N   0  0  0  0  0  0
   23.9162   27.0320   27.7634 N   0  0  0  0  0  0
   31.1068   27.4638   29.4453 N   0  0  0  0  0  0
   29.9750   28.4112   31.6415 O   0  0  0  0  0  0
   30.5628   29.9732   29.9976 O   0  0  0  0  0  0
   25.4943   35.1610   27.0443 Br  0  0  0  0  0  0
   21.7233   25.7193   25.9462 F   0  0  0  0  0  0
   20.4352   26.7550   27.4487 F   0  0  0  0  0  0
   21.8956   25.2614   28.0813 F   0  0  0  0  0  0
   30.0749   28.6437   30.2353 S   0  0  0  0  0  0
   30.9816   27.2690   28.4957 H   0  0  0  0  0  0
   31.8085   27.0029   29.9536 H   0  0  0  0  0  0
  1  3  1  0  0  0
  2  1  2  0  0  0
  2 17  1  0  0  0
  3 18  2  0  0  0
  3  4  1  0  0  0
  4 23  1  0  0  0
  4 25  1  0  0  0
  5 17  1  0  0  0
  5  6  2  0  0  0
  7  6  1  0  0  0
  8  7  2  0  0  0
  9 10  2  0  0  0
  9  8  1  0  0  0
 10  5  1  0  0  0
 11  2  1  0  0  0
 12 11  1  0  0  0
 13 12  2  0  0  0
 14 15  2  0  0  0
 14 13  1  0  0  0
 15 16  1  0  0  0
 16 11  2  0  0  0
 17 18  1  0  0  0
 19 28  1  0  0  0
 20 26  2  0  0  0
 22 14  1  0  0  0
 24  4  1  0  0  0
 26  8  1  0  0  0
 26 19  1  0  0  0
 26 21  2  0  0  0
 27 19  1  0  0  0
M  END
>  <CHROM.0>
142.39489554,-154.10821259,-57.59592345

>  <CHROM.1>
88.51107571,-140.56405272,28.52517392,5.07084942,35.05145705,25.58958849
29.85301491,28.01560559,2.22146147,0.37967760,2.95935665

>  <FORMUL>
      S58    C16 H11 Br1 F3 N3 O2 S1

>  <HET>
 S58  A 701      28

>  <HETNAM>
     S58 1-PHENYLSULFONAMIDE-3-TRIFLUOROMETHYL-5-PARABROMOPHENYL
   2 S58 PYRAZOLE

>  <Name>
S58.pdb

>  <RI>
0

>  <Rbt.Current_Directory>
/home/malgorzata/Desktop/rDOCK_IFD/Wyniki/3a_COX2

>  <Rbt.Executable>
rbdock ($Id: //depot/dev/client3/rdock/2013.1/src/exe/rbdock.cxx#4 $)

>  <Rbt.Library>
libRbt.so (2013.1, Build901 2013/11/27)

>  <Rbt.Parameter_File>
/home/malgorzata/Desktop/rDock_2013.1_src/data/scripts/soft_docking.prm

>  <Rbt.Receptor>
cavity.prm

>  <SCORE>
-25.2552

>  <SCORE.INTER>
-20.2332

>  <SCORE.INTER.CONST>
1

>  <SCORE.INTER.POLAR>
-1.90662

>  <SCORE.INTER.REPUL>
0

>  <SCORE.INTER.ROT>
5

>  <SCORE.INTER.VDW>
-24.1507

>  <SCORE.INTER.norm>
-0.778199

>  <SCORE.INTRA>
-1.00459

>  <SCORE.INTRA.DIHEDRAL>
-5.76396

>  <SCORE.INTRA.DIHEDRAL.0>
18.1022

>  <SCORE.INTRA.POLAR>
0

>  <SCORE.INTRA.POLAR.0>
0

>  <SCORE.INTRA.REPUL>
0

>  <SCORE.INTRA.REPUL.0>
0

>  <SCORE.INTRA.VDW>
0.148204

>  <SCORE.INTRA.VDW.0>
-2.81782

>  <SCORE.INTRA.norm>
-0.038638

>  <SCORE.RESTR>
0

>  <SCORE.RESTR.CAVITY>
0

>  <SCORE.RESTR.norm>
0

>  <SCORE.SYSTEM>
-4.01744

>  <SCORE.SYSTEM.CONST>
0

>  <SCORE.SYSTEM.DIHEDRAL>
0.777839

>  <SCORE.SYSTEM.POLAR>
-0.807588

>  <SCORE.SYSTEM.REPUL>
0.00861959

>  <SCORE.SYSTEM.VDW>
-1.70365

>  <SCORE.SYSTEM.norm>
-0.154517

>  <SCORE.heavy>
26

>  <SCORE.norm>
-0.971354

$$$$
S58.pdb
  rDOCK(R)          3D
libRbt.so/2013.1/901 2013/11/27
 28 30  0  0  0  0  0  0  0  0999 V2000
   23.1044   29.9861   26.4580 C   0  0  0  0  0  0
   23.9337   29.3516   27.3321 C   0  0  0  0  0  0
   23.7819   31.2659   26.0996 C   0  0  0  0  0  0
   23.2697   32.3882   25.2472 C   0  0  0  0  0  0
   26.2722   29.7584   28.0400 C   0  0  0  0  0  0
   26.6231   28.4045   27.9655 C   0  0  0  0  0  0
   27.8658   27.9950   28.4255 C   0  0  0  0  0  0
   28.7621   28.9493   28.9594 C   0  0  0  0  0  0
   28.4073   30.3068   29.0315 C   0  0  0  0  0  0
   27.1523   30.7119   28.5706 C   0  0  0  0  0  0
   23.6252   28.0509   28.0012 C   0  0  0  0  0  0
   23.2212   28.0426   29.3605 C   0  0  0  0  0  0
   22.7831   26.8477   29.9612 C   0  0  0  0  0  0
   22.7417   25.6717   29.2170 C   0  0  0  0  0  0
   23.1677   25.6665   27.8843 C   0  0  0  0  0  0
   23.6110   26.8614   27.2699 C   0  0  0  0  0  0
   25.0582   30.1233   27.5179 N   0  0  0  0  0  0
   24.9289   31.3032   26.7213 N   0  0  0  0  0  0
   31.5076   29.7693   29.3302 N   0  0  0  0  0  0
   30.8150   27.2663   28.8228 O   0  0  0  0  0  0
   30.2871   28.0985   30.9479 O   0  0  0  0  0  0
   21.9673   24.1639   29.9481 Br  0  0  0  0  0  0
   22.7355   31.8802   24.1086 F   0  0  0  0  0  0
   24.2617   33.2542   24.9872 F   0  0  0  0  0  0
   22.3077   33.0181   25.9308 F   0  0  0  0  0  0
   30.4038   28.4229   29.5539 S   0  0  0  0  0  0
   31.2223   30.6741   29.5651 H   0  0  0  0  0  0
   32.4086   29.6147   28.9732 H   0  0  0  0  0  0
  1  3  1  0  0  0
  2  1  2  0  0  0
  2 17  1  0  0  0
  3 18  2  0  0  0
  3  4  1  0  0  0
  4 23  1  0  0  0
  4 25  1  0  0  0
  5 17  1  0  0  0
  5  6  2  0  0  0
  7  6  1  0  0  0
  8  7  2  0  0  0
  9 10  2  0  0  0
  9  8  1  0  0  0
 10  5  1  0  0  0
 11  2  1  0  0  0
 12 11  1  0  0  0
 13 12  2  0  0  0
 14 15  2  0  0  0
 14 13  1  0  0  0
 15 16  1  0  0  0
 16 11  2  0  0  0
 17 18  1  0  0  0
 19 28  1  0  0  0
 20 26  2  0  0  0
 22 14  1  0  0  0
 24  4  1  0  0  0
 26  8  1  0  0  0
 26 19  1  0  0  0
 26 21  2  0  0  0
 27 19  1  0  0  0
M  END
>  <CHROM.0>
154.05015564,17.80989639,-64.43847421

>  <CHROM.1>
-46.77574811,24.32935366,-103.30893291,150.24223733,43.32688902,25.19242153
28.49510398,28.20771251,2.56880221,0.23430616,2.60666599

>  <FORMUL>
      S58    C16 H11 Br1 F3 N3 O2 S1

>  <HET>
 S58  A 701      28

>  <HETNAM>
     S58 1-PHENYLSULFONAMIDE-3-TRIFLUOROMETHYL-5-PARABROMOPHENYL
   2 S58 PYRAZOLE

>  <Name>
S58.pdb

>  <RI>
0

>  <Rbt.Current_Directory>
/home/malgorzata/Desktop/rDOCK_IFD/Wyniki/3a_COX2

>  <Rbt.Executable>
rbdock ($Id: //depot/dev/client3/rdock/2013.1/src/exe/rbdock.cxx#4 $)

>  <Rbt.Library>
libRbt.so (2013.1, Build901 2013/11/27)

>  <Rbt.Parameter_File>
/home/malgorzata/Desktop/rDock_2013.1_src/data/scripts/soft_docking.prm

>  <Rbt.Receptor>
cavity.prm

>  <SCORE>
-19.2457

>  <SCORE.INTER>
-16.7415

>  <SCORE.INTER.CONST>
1

>  <SCORE.INTER.POLAR>
-1.84135

>  <SCORE.INTER.REPUL>
0.173336

>  <SCORE.INTER.ROT>
5

>  <SCORE.INTER.VDW>
-21.7476

>  <SCORE.INTER.norm>
-0.643903

>  <SCORE.INTRA>
0.0321257

>  <SCORE.INTRA.DIHEDRAL>
0.540047

>  <SCORE.INTRA.DIHEDRAL.0>
18.1022

>  <SCORE.INTRA.POLAR>
0

>  <SCORE.INTRA.POLAR.0>
0

>  <SCORE.INTRA.REPUL>
0

>  <SCORE.INTRA.REPUL.0>
0

>  <SCORE.INTRA.VDW>
-0.0758838

>  <SCORE.INTRA.VDW.0>
-2.81782

>  <SCORE.INTRA.norm>
0.0012356

>  <SCORE.RESTR>
1.13297

>  <SCORE.RESTR.CAVITY>
0.226593

>  <SCORE.RESTR.norm>
0.0435756

>  <SCORE.SYSTEM>
-3.66933

>  <SCORE.SYSTEM.CONST>
0

>  <SCORE.SYSTEM.DIHEDRAL>
0.882207

>  <SCORE.SYSTEM.POLAR>
-0.808015

>  <SCORE.SYSTEM.VDW>
-1.36318

>  <SCORE.SYSTEM.norm>
-0.141128

>  <SCORE.heavy>
26

>  <SCORE.norm>
-0.74022

$$$$
S58.pdb
  rDOCK(R)          3D
libRbt.so/2013.1/901 2013/11/27
 28 30  0  0  0  0  0  0  0  0999 V2000
   22.1395   28.4915   26.3915 C   0  0  0  0  0  0
   23.0138   28.0264   27.3262 C   0  0  0  0  0  0
   22.7175   29.7696   25.8841 C   0  0  0  0  0  0
   22.1221   30.7446   24.9128 C   0  0  0  0  0  0
   25.3134   28.6884   27.9653 C   0  0  0  0  0  0
   25.7706   27.3664   28.0355 C   0  0  0  0  0  0
   27.0406   27.1085   28.5296 C   0  0  0  0  0  0
   27.8571   28.1828   28.9520 C   0  0  0  0  0  0
   27.3957   29.5079   28.8791 C   0  0  0  0  0  0
   26.1138   29.7602   28.3845 C   0  0  0  0  0  0
   22.8048   26.7912   28.1420 C   0  0  0  0  0  0
   23.5257   26.6220   29.3515 C   0  0  0  0  0  0
   23.2323   25.5423   30.2049 C   0  0  0  0  0  0
   22.2281   24.6406   29.8629 C   0  0  0  0  0  0
   21.5338   24.7842   28.6566 C   0  0  0  0  0  0
   21.8206   25.8653   27.7901 C   0  0  0  0  0  0
   24.0757   28.8976   27.4141 N   0  0  0  0  0  0
   23.8576   29.9652   26.4887 N   0  0  0  0  0  0
   30.4641   27.1266   28.2922 N   0  0  0  0  0  0
   29.4394   26.9969   30.7284 O   0  0  0  0  0  0
   30.1136   29.1107   29.9769 O   0  0  0  0  0  0
   21.7076   23.3580   31.0843 Br  0  0  0  0  0  0
   20.9312   31.1846   25.3906 F   0  0  0  0  0  0
   21.9913   30.1677   23.7080 F   0  0  0  0  0  0
   22.9564   31.7852   24.8107 F   0  0  0  0  0  0
   29.5338   27.8552   29.5901 S   0  0  0  0  0  0
   31.1889   27.6309   27.8730 H   0  0  0  0  0  0
   30.2598   26.2156   27.9898 H   0  0  0  0  0  0
  1  3  1  0  0  0
  2  1  2  0  0  0
  2 17  1  0  0  0
  3 18  2  0  0  0
  3  4  1  0  0  0
  4 23  1  0  0  0
  4 25  1  0  0  0
  5 17  1  0  0  0
  5  6  2  0  0  0
  7  6  1  0  0  0
  8  7  2  0  0  0
  9 10  2  0  0  0
  9  8  1  0  0  0
 10  5  1  0  0  0
 11  2  1  0  0  0
 12 11  1  0  0  0
 13 12  2  0  0  0
 14 15  2  0  0  0
 14 13  1  0  0  0
 15 16  1  0  0  0
 16 11  2  0  0  0
 17 18  1  0  0  0
 19 28  1  0  0  0
 20 26  2  0  0  0
 22 14  1  0  0  0
 24  4  1  0  0  0
 26  8  1  0  0  0
 26 19  1  0  0  0
 26 21  2  0  0  0
 27 19  1  0  0  0
M  END
>  <CHROM.0>
-136.14586263,-36.72313362,-39.31911297

>  <CHROM.1>
58.19774209,24.73963991,-159.88908003,62.48913325,110.41575388,24.39467343
27.42875729,28.39234972,2.31353048,0.24164982,2.45407592

>  <FORMUL>
      S58    C16 H11 Br1 F3 N3 O2 S1

>  <HET>
 S58  A 701      28

>  <HETNAM>
     S58 1-PHENYLSULFONAMIDE-3-TRIFLUOROMETHYL-5-PARABROMOPHENYL
   2 S58 PYRAZOLE

>  <Name>
S58.pdb

>  <RI>
0

>  <Rbt.Current_Directory>
/home/malgorzata/Desktop/rDOCK_IFD/Wyniki/3a_COX2

>  <Rbt.Executable>
rbdock ($Id: //depot/dev/client3/rdock/2013.1/src/exe/rbdock.cxx#4 $)

>  <Rbt.Library>
libRbt.so (2013.1, Build901 2013/11/27)

>  <Rbt.Parameter_File>
/home/malgorzata/Desktop/rDock_2013.1_src/data/scripts/soft_docking.prm

>  <Rbt.Receptor>
cavity.prm

>  <SCORE>
-21.0991

>  <SCORE.INTER>
-20.7898

>  <SCORE.INTER.CONST>
1

>  <SCORE.INTER.POLAR>
-2.71743

>  <SCORE.INTER.REPUL>
0

>  <SCORE.INTER.ROT>
5

>  <SCORE.INTER.VDW>
-21.9505

>  <SCORE.INTER.norm>
-0.799608

>  <SCORE.INTRA>
0.722834

>  <SCORE.INTRA.DIHEDRAL>
-10.0489

>  <SCORE.INTRA.DIHEDRAL.0>
18.1022

>  <SCORE.INTRA.POLAR>
0

>  <SCORE.INTRA.POLAR.0>
0

>  <SCORE.INTRA.REPUL>
0

>  <SCORE.INTRA.REPUL.0>
0

>  <SCORE.INTRA.VDW>
2.73261

>  <SCORE.INTRA.VDW.0>
-2.81782

>  <SCORE.INTRA.norm>
0.0278013

>  <SCORE.RESTR>
1.1006

>  <SCORE.RESTR.CAVITY>
0.22012

>  <SCORE.RESTR.norm>
0.0423308

>  <SCORE.SYSTEM>
-2.13269

>  <SCORE.SYSTEM.CONST>
0

>  <SCORE.SYSTEM.DIHEDRAL>
2.7179

>  <SCORE.SYSTEM.POLAR>
-0.692592

>  <SCORE.SYSTEM.VDW>
-1.13683

>  <SCORE.SYSTEM.norm>
-0.0820267

>  <SCORE.heavy>
26

>  <SCORE.norm>
-0.811503

$$$$
S58.pdb
  rDOCK(R)          3D
libRbt.so/2013.1/901 2013/11/27
 28 30  0  0  0  0  0  0  0  0999 V2000
   25.8663   31.5087   28.5486 C   0  0  0  0  0  0
   24.9130   30.6458   28.1004 C   0  0  0  0  0  0
   26.3551   30.9495   29.8423 C   0  0  0  0  0  0
   27.3365   31.5450   30.8071 C   0  0  0  0  0  0
   24.2171   28.3783   28.8143 C   0  0  0  0  0  0
   22.8457   28.2691   29.0771 C   0  0  0  0  0  0
   22.2011   27.0621   28.8508 C   0  0  0  0  0  0
   22.9356   25.9604   28.3549 C   0  0  0  0  0  0
   24.3109   26.0738   28.0912 C   0  0  0  0  0  0
   24.9549   27.2912   28.3257 C   0  0  0  0  0  0
   24.1070   30.8443   26.8571 C   0  0  0  0  0  0
   23.6372   29.7142   26.1406 C   0  0  0  0  0  0
   22.7542   29.8800   25.0575 C   0  0  0  0  0  0
   22.3370   31.1570   24.6918 C   0  0  0  0  0  0
   22.8204   32.2783   25.3749 C   0  0  0  0  0  0
   23.7093   32.1242   26.4649 C   0  0  0  0  0  0
   24.7966   29.6073   28.9963 N   0  0  0  0  0  0
   25.7228   29.8291   30.0624 N   0  0  0  0  0  0
   22.9443   23.5704   26.7315 N   0  0  0  0  0  0
   20.7267   24.6275   27.7147 O   0  0  0  0  0  0
   22.1682   23.5876   29.2406 O   0  0  0  0  0  0
   21.0186   31.3480   23.4138 Br  0  0  0  0  0  0
   28.2705   32.2497   30.1207 F   0  0  0  0  0  0
   27.8926   30.5756   31.5504 F   0  0  0  0  0  0
   26.6689   32.3819   31.6092 F   0  0  0  0  0  0
   22.0943   24.3732   28.0408 S   0  0  0  0  0  0
   23.9114   23.6801   26.6422 H   0  0  0  0  0  0
   22.4516   23.0113   26.0928 H   0  0  0  0  0  0
  1  3  1  0  0  0
  2  1  2  0  0  0
  2 17  1  0  0  0
  3 18  2  0  0  0
  3  4  1  0  0  0
  4 23  1  0  0  0
  4 25  1  0  0  0
  5 17  1  0  0  0
  5  6  2  0  0  0
  7  6  1  0  0  0
  8  7  2  0  0  0
  9 10  2  0  0  0
  9  8  1  0  0  0
 10  5  1  0  0  0
 11  2  1  0  0  0
 12 11  1  0  0  0
 13 12  2  0  0  0
 14 15  2  0  0  0
 14 13  1  0  0  0
 15 16  1  0  0  0
 16 11  2  0  0  0
 17 18  1  0  0  0
 19 28  1  0  0  0
 20 26  2  0  0  0
 22 14  1  0  0  0
 24  4  1  0  0  0
 26  8  1  0  0  0
 26 19  1  0  0  0
 26 21  2  0  0  0
 27 19  1  0  0  0
M  END
>  <CHROM.0>
79.74293889,-50.00497336,-79.33533707

>  <CHROM.1>
-33.56910166,-88.06717450,150.48757713,150.42438845,33.65796481,23.67806202
29.20354231,27.52235413,0.02954448,-0.82585764,-0.44922899

>  <FORMUL>
      S58    C16 H11 Br1 F3 N3 O2 S1

>  <HET>
 S58  A 701      28

>  <HETNAM>
     S58 1-PHENYLSULFONAMIDE-3-TRIFLUOROMETHYL-5-PARABROMOPHENYL
   2 S58 PYRAZOLE

>  <Name>
S58.pdb

>  <RI>
0

>  <Rbt.Current_Directory>
/home/malgorzata/Desktop/rDOCK_IFD/Wyniki/3a_COX2

>  <Rbt.Executable>
rbdock ($Id: //depot/dev/client3/rdock/2013.1/src/exe/rbdock.cxx#4 $)

>  <Rbt.Library>
libRbt.so (2013.1, Build901 2013/11/27)

>  <Rbt.Parameter_File>
/home/malgorzata/Desktop/rDock_2013.1_src/data/scripts/soft_docking.prm

>  <Rbt.Receptor>
cavity.prm

>  <SCORE>
-17.2506

>  <SCORE.INTER>
-17.7315

>  <SCORE.INTER.CONST>
1

>  <SCORE.INTER.POLAR>
-1.24792

>  <SCORE.INTER.REPUL>
0

>  <SCORE.INTER.ROT>
5

>  <SCORE.INTER.VDW>
-23.8886

>  <SCORE.INTER.norm>
-0.68198

>  <SCORE.INTRA>
-0.287126

>  <SCORE.INTRA.DIHEDRAL>
1.1359

>  <SCORE.INTRA.DIHEDRAL.0>
18.1022

>  <SCORE.INTRA.POLAR>
0

>  <SCORE.INTRA.POLAR.0>
0

>  <SCORE.INTRA.REPUL>
0

>  <SCORE.INTRA.REPUL.0>
0

>  <SCORE.INTRA.VDW>
-0.514307

>  <SCORE.INTRA.VDW.0>
-2.81782

>  <SCORE.INTRA.norm>
-0.0110433

>  <SCORE.RESTR>
3.87985

>  <SCORE.RESTR.CAVITY>
0.775969

>  <SCORE.RESTR.norm>
0.149225

>  <SCORE.SYSTEM>
-3.11185

>  <SCORE.SYSTEM.CONST>
0

>  <SCORE.SYSTEM.DIHEDRAL>
2.50759

>  <SCORE.SYSTEM.POLAR>
-0.828002

>  <SCORE.SYSTEM.VDW>
-1.55044

>  <SCORE.SYSTEM.norm>
-0.119686

>  <SCORE.heavy>
26

>  <SCORE.norm>
-0.663484

$$$$
S58.pdb
  rDOCK(R)          3D
libRbt.so/2013.1/901 2013/11/27
 28 30  0  0  0  0  0  0  0  0999 V2000
   24.8148   31.3944   30.1163 C   0  0  0  0  0  0
   24.9906   30.1603   29.5682 C   0  0  0  0  0  0
   23.3429   31.6363   30.1274 C   0  0  0  0  0  0
   22.6018   32.8743   30.5359 C   0  0  0  0  0  0
   23.4268   28.3236   29.0058 C   0  0  0  0  0  0
   23.2334   27.4780   30.1055 C   0  0  0  0  0  0
   22.8392   26.1649   29.8961 C   0  0  0  0  0  0
   22.6345   25.6992   28.5769 C   0  0  0  0  0  0
   22.8281   26.5504   27.4761 C   0  0  0  0  0  0
   23.2297   27.8707   27.6940 C   0  0  0  0  0  0
   26.3210   29.5307   29.3064 C   0  0  0  0  0  0
   27.2402   29.3692   30.3742 C   0  0  0  0  0  0
   28.4313   28.6457   30.1791 C   0  0  0  0  0  0
   28.7052   28.0826   28.9356 C   0  0  0  0  0  0
   27.8173   28.2639   27.8695 C   0  0  0  0  0  0
   26.6170   28.9901   28.0533 C   0  0  0  0  0  0
   23.7576   29.6283   29.2660 N   0  0  0  0  0  0
   22.7559   30.5764   29.6421 N   0  0  0  0  0  0
   22.0046   23.7321   26.5566 N   0  0  0  0  0  0
   20.8437   23.7675   28.9343 O   0  0  0  0  0  0
   23.0906   23.1083   28.8652 O   0  0  0  0  0  0
   30.1590   26.9603   28.7497 Br  0  0  0  0  0  0
   22.8642   33.8679   29.6505 F   0  0  0  0  0  0
   22.9442   33.2203   31.7867 F   0  0  0  0  0  0
   21.2929   32.6006   30.5010 F   0  0  0  0  0  0
   22.1024   23.9783   28.2918 S   0  0  0  0  0  0
   21.1375   23.7805   26.1083 H   0  0  0  0  0  0
   22.8172   23.5491   26.0376 H   0  0  0  0  0  0
  1  3  1  0  0  0
  2  1  2  0  0  0
  2 17  1  0  0  0
  3 18  2  0  0  0
  3  4  1  0  0  0
  4 23  1  0  0  0
  4 25  1  0  0  0
  5 17  1  0  0  0
  5  6  2  0  0  0
  7  6  1  0  0  0
  8  7  2  0  0  0
  9 10  2  0  0  0
  9  8  1  0  0  0
 10  5  1  0  0  0
 11  2  1  0  0  0
 12 11  1  0  0  0
 13 12  2  0  0  0
 14 15  2  0  0  0
 14 13  1  0  0  0
 15 16  1  0  0  0
 16 11  2  0  0  0
 17 18  1  0  0  0
 19 28  1  0  0  0
 20 26  2  0  0  0
 22 14  1  0  0  0
 24  4  1  0  0  0
 26  8  1  0  0  0
 26 19  1  0  0  0
 26 21  2  0  0  0
 27 19  1  0  0  0
M  END
>  <CHROM.0>
-10.98445967,-71.05008705,-160.33948359

>  <CHROM.1>
67.39929151,81.49267572,56.48145342,-177.99440779,-99.28108412,24.92443489
28.20108394,29.15049429,-2.30517521,-0.02689735,-2.88107612

>  <FORMUL>
      S58    C16 H11 Br1 F3 N3 O2 S1

>  <HET>
 S58  A 701      28

>  <HETNAM>
     S58 1-PHENYLSULFONAMIDE-3-TRIFLUOROMETHYL-5-PARABROMOPHENYL
   2 S58 PYRAZOLE

>  <Name>
S58.pdb

>  <RI>
0

>  <Rbt.Current_Directory>
/home/malgorzata/Desktop/rDOCK_IFD/Wyniki/3a_COX2

>  <Rbt.Executable>
rbdock ($Id: //depot/dev/client3/rdock/2013.1/src/exe/rbdock.cxx#4 $)

>  <Rbt.Library>
libRbt.so (2013.1, Build901 2013/11/27)

>  <Rbt.Parameter_File>
/home/malgorzata/Desktop/rDock_2013.1_src/data/scripts/soft_docking.prm

>  <Rbt.Receptor>
cavity.prm

>  <SCORE>
-18.3453

>  <SCORE.INTER>
-18.8243

>  <SCORE.INTER.CONST>
1

>  <SCORE.INTER.POLAR>
-1.75593

>  <SCORE.INTER.REPUL>
0

>  <SCORE.INTER.ROT>
5

>  <SCORE.INTER.VDW>
-23.2541

>  <SCORE.INTER.norm>
-0.72401

>  <SCORE.INTRA>
0.442666

>  <SCORE.INTRA.DIHEDRAL>
5.54057

>  <SCORE.INTRA.DIHEDRAL.0>
18.1022

>  <SCORE.INTRA.POLAR>
0

>  <SCORE.INTRA.POLAR.0>
0

>  <SCORE.INTRA.REPUL>
0

>  <SCORE.INTRA.REPUL.0>
0

>  <SCORE.INTRA.VDW>
-0.665449

>  <SCORE.INTRA.VDW.0>
-2.81782

>  <SCORE.INTRA.norm>
0.0170256

>  <SCORE.RESTR>
1.3241

>  <SCORE.RESTR.CAVITY>
0.264821

>  <SCORE.RESTR.norm>
0.050927

>  <SCORE.SYSTEM>
-1.2878

>  <SCORE.SYSTEM.CONST>
0

>  <SCORE.SYSTEM.DIHEDRAL>
2.57588

>  <SCORE.SYSTEM.POLAR>
-0.354472

>  <SCORE.SYSTEM.VDW>
-1.37053

>  <SCORE.SYSTEM.norm>
-0.0495306

>  <SCORE.heavy>
26

>  <SCORE.norm>
-0.705588

$$$$
