612.pdb
  rDOCK(R)          3D
libRbt.so/2013.1/901 2013/11/27
 23 24  0  0  0  0  0  0  0  0999 V2000
    5.6719  -34.5800   22.4281 C   0  0  0  0  0  0
    6.0683  -33.1129   22.3534 C   0  0  0  0  0  0
    5.9302  -32.5883   20.9484 C   0  0  0  0  0  0
    6.7636  -33.4186   19.9771 C   0  0  0  0  0  0
    6.3511  -34.8833   20.0451 C   0  0  0  0  0  0
    6.5083  -35.4023   21.4575 C   0  0  0  0  0  0
    6.0751  -35.1035   24.1326 S   0  0  0  0  0  0
    5.7296  -36.9247   24.2838 C   0  0  0  0  0  0
    4.4290  -37.4056   24.3417 C   0  0  0  0  0  0
    3.1771  -36.5777   23.9958 C   0  0  0  0  0  0
    2.2412  -36.3378   25.1571 C   0  0  0  0  0  0
    2.4948  -37.0107   22.7434 C   0  0  0  0  0  0
    4.1966  -38.8253   24.5467 C   0  0  0  0  0  0
    3.0836  -39.3214   24.6636 O   0  0  0  0  0  0
    6.8259  -37.8003   24.3977 N   0  0  0  0  0  0
    6.6540  -39.1871   24.5795 C   0  0  0  0  0  0
    7.5999  -39.9683   24.6597 O   0  0  0  0  0  0
    5.3394  -39.6223   24.6541 N   0  0  0  0  0  0
    8.2297  -37.3296   24.2839 C   0  0  0  0  0  0
    9.0173  -37.7442   25.3944 O   0  0  0  0  0  0
    8.7020  -36.9973   26.5734 C   0  0  0  0  0  0
    9.3295  -35.6262   26.5235 C   0  0  0  0  0  0
    5.1976  -40.5860   24.7964 H   0  0  0  0  0  0
  1  2  1  0  0  0
  1  6  1  0  0  0
  1  7  1  0  0  0
  2  3  1  0  0  0
  3  4  1  0  0  0
  4  5  1  0  0  0
  5  6  1  0  0  0
  7  8  1  0  0  0
  8  9  2  0  0  0
  8 15  1  0  0  0
  9 10  1  0  0  0
  9 13  1  0  0  0
 10 11  1  0  0  0
 10 12  1  0  0  0
 13 14  2  0  0  0
 13 18  1  0  0  0
 15 16  1  0  0  0
 15 19  1  0  0  0
 16 17  2  0  0  0
 16 18  1  0  0  0
 18 23  1  0  0  0
 19 20  1  0  0  0
 20 21  1  0  0  0
 21 22  1  0  0  0
M  END
>  <CHROM.0>
6.91590859,-23.28853629,-125.13182978

>  <CHROM.1>
-176.19644678,-73.44609915,-115.43911989,127.43171359,-73.65568114,-77.26610212
5.96002062,-36.56453659,23.77591138,1.62317615,-0.24695148,-0.65789824

>  <FORMUL>
      612    C16 H26 N2 O3 S1

>  <HET>
 612  A 999      22

>  <HETNAM>
     612 6-(cyclohexylsulfanyl)-1-(ethoxymethyl)-5-(1-methylethy
   2 612 l)pyrimidine-2,4(1H,3H)-dione

>  <HETSYN>
     612 TNK-6123

>  <Name>
612.pdb

>  <RI>
0

>  <Rbt.Current_Directory>
/home/malgorzata/Desktop/rDOCK_IFD/test9/IFD

>  <Rbt.Executable>
rbdock ($Id: //depot/dev/client3/rdock/2013.1/src/exe/rbdock.cxx#4 $)

>  <Rbt.Library>
libRbt.so (2013.1, Build901 2013/11/27)

>  <Rbt.Parameter_File>
/home/malgorzata/Desktop/rDock_2013.1_src/data/scripts/hard_docking.prm

>  <Rbt.Receptor>
cavity.prm

>  <SCORE>
-2.1288

>  <SCORE.INTER>
-2.74703

>  <SCORE.INTER.CONST>
1

>  <SCORE.INTER.POLAR>
0

>  <SCORE.INTER.REPUL>
0.0168554

>  <SCORE.INTER.ROT>
6

>  <SCORE.INTER.VDW>
-14.2313

>  <SCORE.INTER.norm>
-0.124865

>  <SCORE.INTRA>
-0.645378

>  <SCORE.INTRA.DIHEDRAL>
-4.42131

>  <SCORE.INTRA.DIHEDRAL.0>
11.8882

>  <SCORE.INTRA.POLAR>
0

>  <SCORE.INTRA.POLAR.0>
0

>  <SCORE.INTRA.REPUL>
0

>  <SCORE.INTRA.REPUL.0>
0

>  <SCORE.INTRA.VDW>
1.56528

>  <SCORE.INTRA.VDW.0>
-3.04122

>  <SCORE.INTRA.norm>
-0.0293354

>  <SCORE.RESTR>
0

>  <SCORE.RESTR.CAVITY>
0

>  <SCORE.RESTR.norm>
0

>  <SCORE.SYSTEM>
1.26361

>  <SCORE.SYSTEM.CONST>
0

>  <SCORE.SYSTEM.DIHEDRAL>
4.00098

>  <SCORE.SYSTEM.VDW>
-0.73688

>  <SCORE.SYSTEM.norm>
0.0574369

>  <SCORE.heavy>
22

>  <SCORE.norm>
-0.0967636

$$$$
612.pdb
  rDOCK(R)          3D
libRbt.so/2013.1/901 2013/11/27
 23 24  0  0  0  0  0  0  0  0999 V2000
    4.8347  -38.1013   23.4374 C   0  0  0  0  0  0
    3.9486  -39.1825   24.0381 C   0  0  0  0  0  0
    4.7538  -40.4065   24.3874 C   0  0  0  0  0  0
    5.4901  -40.9371   23.1612 C   0  0  0  0  0  0
    6.3873  -39.8552   22.5741 C   0  0  0  0  0  0
    5.5649  -38.6374   22.2139 C   0  0  0  0  0  0
    3.6898  -36.7812   22.9003 S   0  0  0  0  0  0
    4.6191  -35.6157   21.7882 C   0  0  0  0  0  0
    4.5248  -35.7139   20.4070 C   0  0  0  0  0  0
    3.4633  -36.5453   19.6625 C   0  0  0  0  0  0
    2.0395  -36.2723   20.0869 C   0  0  0  0  0  0
    3.7991  -37.9933   19.5531 C   0  0  0  0  0  0
    5.3312  -34.8433   19.5683 C   0  0  0  0  0  0
    5.3475  -34.9026   18.3457 O   0  0  0  0  0  0
    5.4694  -34.6659   22.3854 N   0  0  0  0  0  0
    6.2581  -33.7869   21.6167 C   0  0  0  0  0  0
    6.9900  -32.9378   22.1217 O   0  0  0  0  0  0
    6.1506  -33.9335   20.2418 N   0  0  0  0  0  0
    5.5533  -34.4942   23.8579 C   0  0  0  0  0  0
    6.1877  -35.6040   24.4837 O   0  0  0  0  0  0
    7.5234  -35.7875   24.0047 C   0  0  0  0  0  0
    8.1723  -36.9772   24.6677 C   0  0  0  0  0  0
    6.7052  -33.3391   19.6866 H   0  0  0  0  0  0
  1  2  1  0  0  0
  1  6  1  0  0  0
  1  7  1  0  0  0
  2  3  1  0  0  0
  3  4  1  0  0  0
  4  5  1  0  0  0
  5  6  1  0  0  0
  7  8  1  0  0  0
  8  9  2  0  0  0
  8 15  1  0  0  0
  9 10  1  0  0  0
  9 13  1  0  0  0
 10 11  1  0  0  0
 10 12  1  0  0  0
 13 14  2  0  0  0
 13 18  1  0  0  0
 15 16  1  0  0  0
 15 19  1  0  0  0
 16 17  2  0  0  0
 16 18  1  0  0  0
 18 23  1  0  0  0
 19 20  1  0  0  0
 20 21  1  0  0  0
 21 22  1  0  0  0
M  END
>  <CHROM.0>
3.03278774,-28.53892292,-131.62383408

>  <CHROM.1>
-166.26642044,98.56001976,51.75592175,70.05275484,60.05258138,-179.33686521
5.21380624,-36.54891425,22.12702531,-1.60716306,-0.88864703,-0.59453298

>  <FORMUL>
      612    C16 H26 N2 O3 S1

>  <HET>
 612  A 999      22

>  <HETNAM>
     612 6-(cyclohexylsulfanyl)-1-(ethoxymethyl)-5-(1-methylethy
   2 612 l)pyrimidine-2,4(1H,3H)-dione

>  <HETSYN>
     612 TNK-6123

>  <Name>
612.pdb

>  <RI>
0

>  <Rbt.Current_Directory>
/home/malgorzata/Desktop/rDOCK_IFD/test9/IFD

>  <Rbt.Executable>
rbdock ($Id: //depot/dev/client3/rdock/2013.1/src/exe/rbdock.cxx#4 $)

>  <Rbt.Library>
libRbt.so (2013.1, Build901 2013/11/27)

>  <Rbt.Parameter_File>
/home/malgorzata/Desktop/rDock_2013.1_src/data/scripts/hard_docking.prm

>  <Rbt.Receptor>
cavity.prm

>  <SCORE>
-6.63707

>  <SCORE.INTER>
-4.47265

>  <SCORE.INTER.CONST>
1

>  <SCORE.INTER.POLAR>
-0.296795

>  <SCORE.INTER.REPUL>
0

>  <SCORE.INTER.ROT>
6

>  <SCORE.INTER.VDW>
-14.8635

>  <SCORE.INTER.norm>
-0.203302

>  <SCORE.INTRA>
-4.12023

>  <SCORE.INTRA.DIHEDRAL>
-6.67988

>  <SCORE.INTRA.DIHEDRAL.0>
11.8882

>  <SCORE.INTRA.POLAR>
0

>  <SCORE.INTRA.POLAR.0>
0

>  <SCORE.INTRA.REPUL>
0

>  <SCORE.INTRA.REPUL.0>
0

>  <SCORE.INTRA.VDW>
-0.780293

>  <SCORE.INTRA.VDW.0>
-3.04122

>  <SCORE.INTRA.norm>
-0.187283

>  <SCORE.RESTR>
0.727911

>  <SCORE.RESTR.CAVITY>
0.727911

>  <SCORE.RESTR.norm>
0.0330868

>  <SCORE.SYSTEM>
1.2279

>  <SCORE.SYSTEM.CONST>
0

>  <SCORE.SYSTEM.DIHEDRAL>
3.76512

>  <SCORE.SYSTEM.VDW>
-0.654662

>  <SCORE.SYSTEM.norm>
0.0558136

>  <SCORE.heavy>
22

>  <SCORE.norm>
-0.301685

$$$$
612.pdb
  rDOCK(R)          3D
libRbt.so/2013.1/901 2013/11/27
 23 24  0  0  0  0  0  0  0  0999 V2000
    6.7939  -34.5546   22.1803 C   0  0  0  0  0  0
    5.8199  -34.0831   21.1107 C   0  0  0  0  0  0
    6.4240  -32.9818   20.2796 C   0  0  0  0  0  0
    6.8574  -31.8150   21.1615 C   0  0  0  0  0  0
    7.8444  -32.2904   22.2198 C   0  0  0  0  0  0
    7.2209  -33.3855   23.0571 C   0  0  0  0  0  0
    5.8501  -35.7375   23.2060 S   0  0  0  0  0  0
    5.5834  -37.2892   22.2162 C   0  0  0  0  0  0
    4.3510  -37.5718   21.6437 C   0  0  0  0  0  0
    3.2039  -36.5544   21.4972 C   0  0  0  0  0  0
    1.9975  -36.8384   22.3608 C   0  0  0  0  0  0
    2.8746  -36.2162   20.0834 C   0  0  0  0  0  0
    4.1535  -38.8334   20.9504 C   0  0  0  0  0  0
    3.0846  -39.1822   20.4661 O   0  0  0  0  0  0
    6.6508  -38.2009   22.1120 N   0  0  0  0  0  0
    6.5158  -39.4295   21.4351 C   0  0  0  0  0  0
    7.4435  -40.2276   21.3167 O   0  0  0  0  0  0
    5.2626  -39.6818   20.8974 N   0  0  0  0  0  0
    7.9984  -37.9078   22.6626 C   0  0  0  0  0  0
    8.6075  -36.8012   22.0068 O   0  0  0  0  0  0
    9.8865  -36.4929   22.5695 C   0  0  0  0  0  0
    9.7336  -35.7786   23.8895 C   0  0  0  0  0  0
    5.1428  -40.5418   20.4335 H   0  0  0  0  0  0
  1  2  1  0  0  0
  1  6  1  0  0  0
  1  7  1  0  0  0
  2  3  1  0  0  0
  3  4  1  0  0  0
  4  5  1  0  0  0
  5  6  1  0  0  0
  7  8  1  0  0  0
  8  9  2  0  0  0
  8 15  1  0  0  0
  9 10  1  0  0  0
  9 13  1  0  0  0
 10 11  1  0  0  0
 10 12  1  0  0  0
 13 14  2  0  0  0
 13 18  1  0  0  0
 15 16  1  0  0  0
 15 19  1  0  0  0
 16 17  2  0  0  0
 16 18  1  0  0  0
 18 23  1  0  0  0
 19 20  1  0  0  0
 20 21  1  0  0  0
 21 22  1  0  0  0
M  END
>  <CHROM.0>
-7.40830018,124.95149008,0.81255496

>  <CHROM.1>
71.47415089,-103.94344363,-111.60121139,-64.15010851,178.03870946,-76.04255840
6.10532522,-36.42116123,21.86036766,0.95097064,-0.27411457,0.02153802

>  <FORMUL>
      612    C16 H26 N2 O3 S1

>  <HET>
 612  A 999      22

>  <HETNAM>
     612 6-(cyclohexylsulfanyl)-1-(ethoxymethyl)-5-(1-methylethy
   2 612 l)pyrimidine-2,4(1H,3H)-dione

>  <HETSYN>
     612 TNK-6123

>  <Name>
612.pdb

>  <RI>
0

>  <Rbt.Current_Directory>
/home/malgorzata/Desktop/rDOCK_IFD/test9/IFD

>  <Rbt.Executable>
rbdock ($Id: //depot/dev/client3/rdock/2013.1/src/exe/rbdock.cxx#4 $)

>  <Rbt.Library>
libRbt.so (2013.1, Build901 2013/11/27)

>  <Rbt.Parameter_File>
/home/malgorzata/Desktop/rDock_2013.1_src/data/scripts/hard_docking.prm

>  <Rbt.Receptor>
cavity.prm

>  <SCORE>
-14.1487

>  <SCORE.INTER>
2.62934

>  <SCORE.INTER.CONST>
1

>  <SCORE.INTER.POLAR>
0

>  <SCORE.INTER.REPUL>
0

>  <SCORE.INTER.ROT>
6

>  <SCORE.INTER.VDW>
-8.77066

>  <SCORE.INTER.norm>
0.119516

>  <SCORE.INTRA>
-1.61353

>  <SCORE.INTRA.DIHEDRAL>
-5.27735

>  <SCORE.INTRA.DIHEDRAL.0>
11.8882

>  <SCORE.INTRA.POLAR>
0

>  <SCORE.INTRA.POLAR.0>
0

>  <SCORE.INTRA.REPUL>
0

>  <SCORE.INTRA.REPUL.0>
0

>  <SCORE.INTRA.VDW>
1.02515

>  <SCORE.INTRA.VDW.0>
-3.04122

>  <SCORE.INTRA.norm>
-0.0733421

>  <SCORE.RESTR>
1.09087

>  <SCORE.RESTR.CAVITY>
1.09087

>  <SCORE.RESTR.norm>
0.0495849

>  <SCORE.SYSTEM>
-16.2554

>  <SCORE.SYSTEM.CONST>
0

>  <SCORE.SYSTEM.DIHEDRAL>
3.30844

>  <SCORE.SYSTEM.REPUL>
0.185107

>  <SCORE.SYSTEM.VDW>
-18.8352

>  <SCORE.SYSTEM.norm>
-0.738882

>  <SCORE.heavy>
22

>  <SCORE.norm>
-0.643123

$$$$
612.pdb
  rDOCK(R)          3D
libRbt.so/2013.1/901 2013/11/27
 23 24  0  0  0  0  0  0  0  0999 V2000
    4.1555  -36.2179   22.7566 C   0  0  0  0  0  0
    3.3080  -37.3288   22.1544 C   0  0  0  0  0  0
    1.9017  -37.2854   22.6921 C   0  0  0  0  0  0
    1.9023  -37.3774   24.2149 C   0  0  0  0  0  0
    2.7392  -36.2535   24.8120 C   0  0  0  0  0  0
    4.1525  -36.3169   24.2758 C   0  0  0  0  0  0
    5.8544  -36.5265   22.1562 S   0  0  0  0  0  0
    7.0120  -35.3855   23.0600 C   0  0  0  0  0  0
    7.2831  -34.1116   22.5804 C   0  0  0  0  0  0
    6.4730  -33.4045   21.4776 C   0  0  0  0  0  0
    7.2357  -33.1582   20.1971 C   0  0  0  0  0  0
    5.6971  -32.2271   21.9602 C   0  0  0  0  0  0
    8.2582  -33.2791   23.2643 C   0  0  0  0  0  0
    8.5937  -32.1677   22.8759 O   0  0  0  0  0  0
    7.6536  -35.8707   24.2152 N   0  0  0  0  0  0
    8.5933  -35.0963   24.9245 C   0  0  0  0  0  0
    9.1470  -35.4965   25.9466 O   0  0  0  0  0  0
    8.8511  -33.8391   24.3989 N   0  0  0  0  0  0
    7.3469  -37.2055   24.7891 C   0  0  0  0  0  0
    8.3080  -38.1807   24.4006 O   0  0  0  0  0  0
    7.9045  -39.4999   24.7805 C   0  0  0  0  0  0
    8.0500  -39.6975   26.2691 C   0  0  0  0  0  0
    9.5162  -33.2878   24.8710 H   0  0  0  0  0  0
  1  2  1  0  0  0
  1  6  1  0  0  0
  1  7  1  0  0  0
  2  3  1  0  0  0
  3  4  1  0  0  0
  4  5  1  0  0  0
  5  6  1  0  0  0
  7  8  1  0  0  0
  8  9  2  0  0  0
  8 15  1  0  0  0
  9 10  1  0  0  0
  9 13  1  0  0  0
 10 11  1  0  0  0
 10 12  1  0  0  0
 13 14  2  0  0  0
 13 18  1  0  0  0
 15 16  1  0  0  0
 15 19  1  0  0  0
 16 17  2  0  0  0
 16 18  1  0  0  0
 18 23  1  0  0  0
 19 20  1  0  0  0
 20 21  1  0  0  0
 21 22  1  0  0  0
M  END
>  <CHROM.0>
0.09037132,-147.28918282,86.54740599

>  <CHROM.1>
-170.87365056,-88.38606750,-114.05836245,98.95119870,-171.08430181,-73.57667625
6.38231040,-35.78302857,23.50120437,2.43672648,0.31589462,2.60512339

>  <FORMUL>
      612    C16 H26 N2 O3 S1

>  <HET>
 612  A 999      22

>  <HETNAM>
     612 6-(cyclohexylsulfanyl)-1-(ethoxymethyl)-5-(1-methylethy
   2 612 l)pyrimidine-2,4(1H,3H)-dione

>  <HETSYN>
     612 TNK-6123

>  <Name>
612.pdb

>  <RI>
0

>  <Rbt.Current_Directory>
/home/malgorzata/Desktop/rDOCK_IFD/test9/IFD

>  <Rbt.Executable>
rbdock ($Id: //depot/dev/client3/rdock/2013.1/src/exe/rbdock.cxx#4 $)

>  <Rbt.Library>
libRbt.so (2013.1, Build901 2013/11/27)

>  <Rbt.Parameter_File>
/home/malgorzata/Desktop/rDock_2013.1_src/data/scripts/hard_docking.prm

>  <Rbt.Receptor>
cavity.prm

>  <SCORE>
3.14333

>  <SCORE.INTER>
-1.03182

>  <SCORE.INTER.CONST>
1

>  <SCORE.INTER.POLAR>
0

>  <SCORE.INTER.REPUL>
0

>  <SCORE.INTER.ROT>
6

>  <SCORE.INTER.VDW>
-12.4318

>  <SCORE.INTER.norm>
-0.0469009

>  <SCORE.INTRA>
-0.630589

>  <SCORE.INTRA.DIHEDRAL>
-5.43089

>  <SCORE.INTRA.DIHEDRAL.0>
11.8882

>  <SCORE.INTRA.POLAR>
0

>  <SCORE.INTRA.POLAR.0>
0

>  <SCORE.INTRA.REPUL>
0

>  <SCORE.INTRA.REPUL.0>
0

>  <SCORE.INTRA.VDW>
2.08486

>  <SCORE.INTRA.VDW.0>
-3.04122

>  <SCORE.INTRA.norm>
-0.0286631

>  <SCORE.RESTR>
0.617269

>  <SCORE.RESTR.CAVITY>
0.617269

>  <SCORE.RESTR.norm>
0.0280577

>  <SCORE.SYSTEM>
4.18847

>  <SCORE.SYSTEM.CONST>
0

>  <SCORE.SYSTEM.DIHEDRAL>
6.18899

>  <SCORE.SYSTEM.VDW>
1.09397

>  <SCORE.SYSTEM.norm>
0.190385

>  <SCORE.heavy>
22

>  <SCORE.norm>
0.142878

$$$$
612.pdb
  rDOCK(R)          3D
libRbt.so/2013.1/901 2013/11/27
 23 24  0  0  0  0  0  0  0  0999 V2000
    6.2270  -34.4323   23.6074 C   0  0  0  0  0  0
    7.7417  -34.3191   23.6974 C   0  0  0  0  0  0
    8.2291  -33.0630   23.0243 C   0  0  0  0  0  0
    7.7740  -33.0183   21.5689 C   0  0  0  0  0  0
    6.2562  -33.1159   21.4865 C   0  0  0  0  0  0
    5.7805  -34.3883   22.1526 C   0  0  0  0  0  0
    5.8238  -36.0792   24.2908 S   0  0  0  0  0  0
    4.0712  -36.4936   23.8267 C   0  0  0  0  0  0
    3.7927  -37.4173   22.8291 C   0  0  0  0  0  0
    4.8250  -38.3901   22.2287 C   0  0  0  0  0  0
    5.4328  -39.3532   23.2211 C   0  0  0  0  0  0
    5.8170  -37.7366   21.3285 C   0  0  0  0  0  0
    2.4147  -37.6531   22.4328 C   0  0  0  0  0  0
    2.0883  -38.4089   21.5269 O   0  0  0  0  0  0
    3.0320  -35.8001   24.4753 N   0  0  0  0  0  0
    1.6787  -36.0058   24.1404 C   0  0  0  0  0  0
    0.7579  -35.4243   24.7109 O   0  0  0  0  0  0
    1.4462  -36.9201   23.1239 N   0  0  0  0  0  0
    3.2885  -34.8472   25.5849 C   0  0  0  0  0  0
    3.7923  -33.6045   25.1079 O   0  0  0  0  0  0
    3.8751  -32.6320   26.1541 C   0  0  0  0  0  0
    2.5088  -32.0868   26.4891 C   0  0  0  0  0  0
    0.5081  -37.0670   22.8640 H   0  0  0  0  0  0
  1  2  1  0  0  0
  1  6  1  0  0  0
  1  7  1  0  0  0
  2  3  1  0  0  0
  3  4  1  0  0  0
  4  5  1  0  0  0
  5  6  1  0  0  0
  7  8  1  0  0  0
  8  9  2  0  0  0
  8 15  1  0  0  0
  9 10  1  0  0  0
  9 13  1  0  0  0
 10 11  1  0  0  0
 10 12  1  0  0  0
 13 14  2  0  0  0
 13 18  1  0  0  0
 15 16  1  0  0  0
 15 19  1  0  0  0
 16 17  2  0  0  0
 16 18  1  0  0  0
 18 23  1  0  0  0
 19 20  1  0  0  0
 20 21  1  0  0  0
 21 22  1  0  0  0
M  END
>  <CHROM.0>
179.50138285,-145.45249951,-101.48707954

>  <CHROM.1>
-165.50404666,105.14248614,60.92745244,76.50908567,172.46979747,-75.96757086
4.45056712,-35.51878174,23.55715849,-0.64990936,-0.40678158,-2.62178771

>  <FORMUL>
      612    C16 H26 N2 O3 S1

>  <HET>
 612  A 999      22

>  <HETNAM>
     612 6-(cyclohexylsulfanyl)-1-(ethoxymethyl)-5-(1-methylethy
   2 612 l)pyrimidine-2,4(1H,3H)-dione

>  <HETSYN>
     612 TNK-6123

>  <Name>
612.pdb

>  <RI>
0

>  <Rbt.Current_Directory>
/home/malgorzata/Desktop/rDOCK_IFD/test9/IFD

>  <Rbt.Executable>
rbdock ($Id: //depot/dev/client3/rdock/2013.1/src/exe/rbdock.cxx#4 $)

>  <Rbt.Library>
libRbt.so (2013.1, Build901 2013/11/27)

>  <Rbt.Parameter_File>
/home/malgorzata/Desktop/rDock_2013.1_src/data/scripts/hard_docking.prm

>  <Rbt.Receptor>
cavity.prm

>  <SCORE>
-7.14394

>  <SCORE.INTER>
-6.39252

>  <SCORE.INTER.CONST>
1

>  <SCORE.INTER.POLAR>
-0.774762

>  <SCORE.INTER.REPUL>
0

>  <SCORE.INTER.ROT>
6

>  <SCORE.INTER.VDW>
-15.1583

>  <SCORE.INTER.norm>
-0.290569

>  <SCORE.INTRA>
-1.83535

>  <SCORE.INTRA.DIHEDRAL>
-5.12483

>  <SCORE.INTRA.DIHEDRAL.0>
11.8882

>  <SCORE.INTRA.POLAR>
0

>  <SCORE.INTRA.POLAR.0>
0

>  <SCORE.INTRA.REPUL>
0

>  <SCORE.INTRA.REPUL.0>
0

>  <SCORE.INTRA.VDW>
0.727064

>  <SCORE.INTRA.VDW.0>
-3.04122

>  <SCORE.INTRA.norm>
-0.0834249

>  <SCORE.RESTR>
0

>  <SCORE.RESTR.CAVITY>
0

>  <SCORE.RESTR.norm>
0

>  <SCORE.SYSTEM>
1.08393

>  <SCORE.SYSTEM.CONST>
0

>  <SCORE.SYSTEM.DIHEDRAL>
6.1546

>  <SCORE.SYSTEM.VDW>
-1.99337

>  <SCORE.SYSTEM.norm>
0.0492696

>  <SCORE.heavy>
22

>  <SCORE.norm>
-0.324724

$$$$
612.pdb
  rDOCK(R)          3D
libRbt.so/2013.1/901 2013/11/27
 23 24  0  0  0  0  0  0  0  0999 V2000
    6.4593  -33.8438   22.5286 C   0  0  0  0  0  0
    5.6435  -32.6207   22.1366 C   0  0  0  0  0  0
    6.1918  -31.9857   20.8857 C   0  0  0  0  0  0
    7.6603  -31.6147   21.0670 C   0  0  0  0  0  0
    8.4740  -32.8460   21.4436 C   0  0  0  0  0  0
    7.9230  -33.4658   22.7090 C   0  0  0  0  0  0
    5.7909  -34.3727   24.1458 S   0  0  0  0  0  0
    6.2667  -36.1489   24.4244 C   0  0  0  0  0  0
    5.3444  -37.1729   24.2593 C   0  0  0  0  0  0
    3.9788  -37.0128   23.5653 C   0  0  0  0  0  0
    4.0530  -36.5368   22.1336 C   0  0  0  0  0  0
    2.9621  -36.3018   24.3914 C   0  0  0  0  0  0
    5.7264  -38.5403   24.5689 C   0  0  0  0  0  0
    4.9586  -39.4915   24.5025 O   0  0  0  0  0  0
    7.5750  -36.4234   24.8655 N   0  0  0  0  0  0
    8.0000  -37.7340   25.1617 C   0  0  0  0  0  0
    9.1446  -37.9938   25.5277 O   0  0  0  0  0  0
    7.0413  -38.7237   25.0047 N   0  0  0  0  0  0
    8.6041  -35.3614   24.9992 C   0  0  0  0  0  0
    8.9115  -35.0926   26.3627 O   0  0  0  0  0  0
    9.8543  -34.0239   26.4904 C   0  0  0  0  0  0
   10.0700  -33.6695   27.9409 C   0  0  0  0  0  0
    7.3136  -39.6446   25.2213 H   0  0  0  0  0  0
  1  2  1  0  0  0
  1  6  1  0  0  0
  1  7  1  0  0  0
  2  3  1  0  0  0
  3  4  1  0  0  0
  4  5  1  0  0  0
  5  6  1  0  0  0
  7  8  1  0  0  0
  8  9  2  0  0  0
  8 15  1  0  0  0
  9 10  1  0  0  0
  9 13  1  0  0  0
 10 11  1  0  0  0
 10 12  1  0  0  0
 13 14  2  0  0  0
 13 18  1  0  0  0
 15 16  1  0  0  0
 15 19  1  0  0  0
 16 17  2  0  0  0
 16 18  1  0  0  0
 18 23  1  0  0  0
 19 20  1  0  0  0
 20 21  1  0  0  0
 21 22  1  0  0  0
M  END
>  <CHROM.0>
-176.35514858,-22.54136729,0.21587751

>  <CHROM.1>
160.01413829,-103.40232633,58.81979404,109.81259195,-177.12967345,174.76446086
6.81702445,-35.43956400,24.08472678,1.37767685,-0.59081394,-0.57126540

>  <FORMUL>
      612    C16 H26 N2 O3 S1

>  <HET>
 612  A 999      22

>  <HETNAM>
     612 6-(cyclohexylsulfanyl)-1-(ethoxymethyl)-5-(1-methylethy
   2 612 l)pyrimidine-2,4(1H,3H)-dione

>  <HETSYN>
     612 TNK-6123

>  <Name>
612.pdb

>  <RI>
0

>  <Rbt.Current_Directory>
/home/malgorzata/Desktop/rDOCK_IFD/test9/IFD

>  <Rbt.Executable>
rbdock ($Id: //depot/dev/client3/rdock/2013.1/src/exe/rbdock.cxx#4 $)

>  <Rbt.Library>
libRbt.so (2013.1, Build901 2013/11/27)

>  <Rbt.Parameter_File>
/home/malgorzata/Desktop/rDock_2013.1_src/data/scripts/hard_docking.prm

>  <Rbt.Receptor>
cavity.prm

>  <SCORE>
-24.352

>  <SCORE.INTER>
-3.09179

>  <SCORE.INTER.CONST>
1

>  <SCORE.INTER.POLAR>
0

>  <SCORE.INTER.REPUL>
0

>  <SCORE.INTER.ROT>
6

>  <SCORE.INTER.VDW>
-14.4918

>  <SCORE.INTER.norm>
-0.140536

>  <SCORE.INTRA>
-2.46628

>  <SCORE.INTRA.DIHEDRAL>
-5.92636

>  <SCORE.INTRA.DIHEDRAL.0>
11.8882

>  <SCORE.INTRA.POLAR>
0

>  <SCORE.INTRA.POLAR.0>
0

>  <SCORE.INTRA.REPUL>
0

>  <SCORE.INTRA.REPUL.0>
0

>  <SCORE.INTRA.VDW>
0.496898

>  <SCORE.INTRA.VDW.0>
-3.04122

>  <SCORE.INTRA.norm>
-0.112104

>  <SCORE.RESTR>
0.098185

>  <SCORE.RESTR.CAVITY>
0.098185

>  <SCORE.RESTR.norm>
0.00446295

>  <SCORE.SYSTEM>
-18.8922

>  <SCORE.SYSTEM.CONST>
0

>  <SCORE.SYSTEM.DIHEDRAL>
0.715821

>  <SCORE.SYSTEM.VDW>
-19.2501

>  <SCORE.SYSTEM.norm>
-0.858734

>  <SCORE.heavy>
22

>  <SCORE.norm>
-1.10691

$$$$
612.pdb
  rDOCK(R)          3D
libRbt.so/2013.1/901 2013/11/27
 23 24  0  0  0  0  0  0  0  0999 V2000
    5.8226  -38.3174   23.1511 C   0  0  0  0  0  0
    6.3933  -39.6345   22.6464 C   0  0  0  0  0  0
    5.4089  -40.7578   22.8404 C   0  0  0  0  0  0
    5.0055  -40.8756   24.3069 C   0  0  0  0  0  0
    4.4205  -39.5591   24.8016 C   0  0  0  0  0  0
    5.4237  -38.4421   24.6151 C   0  0  0  0  0  0
    7.1937  -37.1153   23.0216 S   0  0  0  0  0  0
    6.5349  -35.5550   22.2532 C   0  0  0  0  0  0
    7.0567  -34.3138   22.5900 C   0  0  0  0  0  0
    8.3744  -34.1015   23.3588 C   0  0  0  0  0  0
    9.6172  -34.5019   22.5990 C   0  0  0  0  0  0
    8.3371  -34.5908   24.7662 C   0  0  0  0  0  0
    6.4609  -33.1098   22.0361 C   0  0  0  0  0  0
    6.8255  -31.9772   22.3240 O   0  0  0  0  0  0
    5.4501  -35.6615   21.3625 N   0  0  0  0  0  0
    4.8486  -34.5257   20.7844 C   0  0  0  0  0  0
    3.9144  -34.6018   19.9887 O   0  0  0  0  0  0
    5.3860  -33.3051   21.1648 N   0  0  0  0  0  0
    4.9026  -36.9741   20.9357 C   0  0  0  0  0  0
    5.1042  -37.2037   19.5456 O   0  0  0  0  0  0
    4.4137  -38.3743   19.0983 C   0  0  0  0  0  0
    2.9231  -38.1421   19.0763 C   0  0  0  0  0  0
    4.9700  -32.4982   20.7841 H   0  0  0  0  0  0
  1  2  1  0  0  0
  1  6  1  0  0  0
  1  7  1  0  0  0
  2  3  1  0  0  0
  3  4  1  0  0  0
  4  5  1  0  0  0
  5  6  1  0  0  0
  7  8  1  0  0  0
  8  9  2  0  0  0
  8 15  1  0  0  0
  9 10  1  0  0  0
  9 13  1  0  0  0
 10 11  1  0  0  0
 10 12  1  0  0  0
 13 14  2  0  0  0
 13 18  1  0  0  0
 15 16  1  0  0  0
 15 19  1  0  0  0
 16 17  2  0  0  0
 16 18  1  0  0  0
 18 23  1  0  0  0
 19 20  1  0  0  0
 20 21  1  0  0  0
 21 22  1  0  0  0
M  END
>  <CHROM.0>
13.02393666,-145.35682648,0.18494726

>  <CHROM.1>
134.25042991,148.12761147,67.62234346,-114.29661989,-171.73361512,71.07859250
5.95257504,-36.47615870,22.16379148,-2.09350740,-0.85691044,-0.47210581

>  <FORMUL>
      612    C16 H26 N2 O3 S1

>  <HET>
 612  A 999      22

>  <HETNAM>
     612 6-(cyclohexylsulfanyl)-1-(ethoxymethyl)-5-(1-methylethy
   2 612 l)pyrimidine-2,4(1H,3H)-dione

>  <HETSYN>
     612 TNK-6123

>  <Name>
612.pdb

>  <RI>
0

>  <Rbt.Current_Directory>
/home/malgorzata/Desktop/rDOCK_IFD/test9/IFD

>  <Rbt.Executable>
rbdock ($Id: //depot/dev/client3/rdock/2013.1/src/exe/rbdock.cxx#4 $)

>  <Rbt.Library>
libRbt.so (2013.1, Build901 2013/11/27)

>  <Rbt.Parameter_File>
/home/malgorzata/Desktop/rDock_2013.1_src/data/scripts/hard_docking.prm

>  <Rbt.Receptor>
cavity.prm

>  <SCORE>
-14.3371

>  <SCORE.INTER>
-0.43885

>  <SCORE.INTER.CONST>
1

>  <SCORE.INTER.POLAR>
0

>  <SCORE.INTER.REPUL>
0

>  <SCORE.INTER.ROT>
6

>  <SCORE.INTER.VDW>
-11.8388

>  <SCORE.INTER.norm>
-0.0199477

>  <SCORE.INTRA>
2.58696

>  <SCORE.INTRA.DIHEDRAL>
-3.50726

>  <SCORE.INTRA.DIHEDRAL.0>
11.8882

>  <SCORE.INTRA.POLAR>
0

>  <SCORE.INTRA.POLAR.0>
0

>  <SCORE.INTRA.REPUL>
0

>  <SCORE.INTRA.REPUL.0>
0

>  <SCORE.INTRA.VDW>
4.3406

>  <SCORE.INTRA.VDW.0>
-3.04122

>  <SCORE.INTRA.norm>
0.117589

>  <SCORE.RESTR>
0.598715

>  <SCORE.RESTR.CAVITY>
0.598715

>  <SCORE.RESTR.norm>
0.0272143

>  <SCORE.SYSTEM>
-17.0839

>  <SCORE.SYSTEM.CONST>
0

>  <SCORE.SYSTEM.DIHEDRAL>
1.78588

>  <SCORE.SYSTEM.REPUL>
0.227215

>  <SCORE.SYSTEM.VDW>
-19.1129

>  <SCORE.SYSTEM.norm>
-0.77654

>  <SCORE.heavy>
22

>  <SCORE.norm>
-0.651685

$$$$
612.pdb
  rDOCK(R)          3D
libRbt.so/2013.1/901 2013/11/27
 23 24  0  0  0  0  0  0  0  0999 V2000
    5.0182  -38.2280   23.2455 C   0  0  0  0  0  0
    6.4487  -38.0077   23.7146 C   0  0  0  0  0  0
    7.2230  -39.2996   23.7078 C   0  0  0  0  0  0
    6.5311  -40.3489   24.5725 C   0  0  0  0  0  0
    5.1050  -40.5763   24.0881 C   0  0  0  0  0  0
    4.3339  -39.2749   24.1136 C   0  0  0  0  0  0
    4.1757  -36.6247   23.4937 S   0  0  0  0  0  0
    4.8155  -35.4238   22.2259 C   0  0  0  0  0  0
    5.4676  -34.2591   22.6061 C   0  0  0  0  0  0
    5.9912  -33.9770   24.0269 C   0  0  0  0  0  0
    7.1613  -34.8347   24.4476 C   0  0  0  0  0  0
    4.9172  -33.8659   25.0544 C   0  0  0  0  0  0
    5.8775  -33.3018   21.5926 C   0  0  0  0  0  0
    6.4078  -32.2283   21.8473 O   0  0  0  0  0  0
    4.5683  -35.6991   20.8678 N   0  0  0  0  0  0
    4.9616  -34.8121   19.8458 C   0  0  0  0  0  0
    4.7723  -35.0467   18.6539 O   0  0  0  0  0  0
    5.5897  -33.6508   20.2705 N   0  0  0  0  0  0
    3.9244  -36.9602   20.4205 C   0  0  0  0  0  0
    4.8573  -38.0326   20.3482 O   0  0  0  0  0  0
    4.2306  -39.2503   19.9337 C   0  0  0  0  0  0
    5.2222  -40.3873   19.9234 C   0  0  0  0  0  0
    5.8588  -33.0104   19.5729 H   0  0  0  0  0  0
  1  2  1  0  0  0
  1  6  1  0  0  0
  1  7  1  0  0  0
  2  3  1  0  0  0
  3  4  1  0  0  0
  4  5  1  0  0  0
  5  6  1  0  0  0
  7  8  1  0  0  0
  8  9  2  0  0  0
  8 15  1  0  0  0
  9 10  1  0  0  0
  9 13  1  0  0  0
 10 11  1  0  0  0
 10 12  1  0  0  0
 13 14  2  0  0  0
 13 18  1  0  0  0
 15 16  1  0  0  0
 15 19  1  0  0  0
 16 17  2  0  0  0
 16 18  1  0  0  0
 18 23  1  0  0  0
 19 20  1  0  0  0
 20 21  1  0  0  0
 21 22  1  0  0  0
M  END
>  <CHROM.0>
-3.55359873,-147.15241210,0.84777798

>  <CHROM.1>
71.51691967,-118.99057059,68.73071297,-81.47636933,179.24343951,-177.44368179
5.28699623,-36.56967179,22.27006551,-1.69173503,-1.32435754,-0.31788090

>  <FORMUL>
      612    C16 H26 N2 O3 S1

>  <HET>
 612  A 999      22

>  <HETNAM>
     612 6-(cyclohexylsulfanyl)-1-(ethoxymethyl)-5-(1-methylethy
   2 612 l)pyrimidine-2,4(1H,3H)-dione

>  <HETSYN>
     612 TNK-6123

>  <Name>
612.pdb

>  <RI>
0

>  <Rbt.Current_Directory>
/home/malgorzata/Desktop/rDOCK_IFD/test9/IFD

>  <Rbt.Executable>
rbdock ($Id: //depot/dev/client3/rdock/2013.1/src/exe/rbdock.cxx#4 $)

>  <Rbt.Library>
libRbt.so (2013.1, Build901 2013/11/27)

>  <Rbt.Parameter_File>
/home/malgorzata/Desktop/rDock_2013.1_src/data/scripts/hard_docking.prm

>  <Rbt.Receptor>
cavity.prm

>  <SCORE>
-22.3196

>  <SCORE.INTER>
-2.75268

>  <SCORE.INTER.CONST>
1

>  <SCORE.INTER.POLAR>
-0.399379

>  <SCORE.INTER.REPUL>
0

>  <SCORE.INTER.ROT>
6

>  <SCORE.INTER.VDW>
-12.7948

>  <SCORE.INTER.norm>
-0.125122

>  <SCORE.INTRA>
-3.84793

>  <SCORE.INTRA.DIHEDRAL>
-6.28222

>  <SCORE.INTRA.DIHEDRAL.0>
11.8882

>  <SCORE.INTRA.POLAR>
0

>  <SCORE.INTRA.POLAR.0>
0

>  <SCORE.INTRA.REPUL>
0

>  <SCORE.INTRA.REPUL.0>
0

>  <SCORE.INTRA.VDW>
-0.706825

>  <SCORE.INTRA.VDW.0>
-3.04122

>  <SCORE.INTRA.norm>
-0.174906

>  <SCORE.RESTR>
1.45767

>  <SCORE.RESTR.CAVITY>
1.45767

>  <SCORE.RESTR.norm>
0.0662577

>  <SCORE.SYSTEM>
-17.1766

>  <SCORE.SYSTEM.CONST>
0

>  <SCORE.SYSTEM.DIHEDRAL>
1.44277

>  <SCORE.SYSTEM.REPUL>
0.203034

>  <SCORE.SYSTEM.VDW>
-18.9132

>  <SCORE.SYSTEM.norm>
-0.780755

>  <SCORE.heavy>
22

>  <SCORE.norm>
-1.01453

$$$$
612.pdb
  rDOCK(R)          3D
libRbt.so/2013.1/901 2013/11/27
 23 24  0  0  0  0  0  0  0  0999 V2000
    7.5634  -35.4946   23.9266 C   0  0  0  0  0  0
    8.1601  -34.1193   24.1865 C   0  0  0  0  0  0
    9.6576  -34.1427   24.0270 C   0  0  0  0  0  0
   10.2834  -35.1818   24.9522 C   0  0  0  0  0  0
    9.6936  -36.5588   24.6762 C   0  0  0  0  0  0
    8.1915  -36.5257   24.8541 C   0  0  0  0  0  0
    5.7904  -35.3391   24.3442 S   0  0  0  0  0  0
    4.7917  -35.8459   22.8594 C   0  0  0  0  0  0
    4.0646  -37.0281   22.8536 C   0  0  0  0  0  0
    3.7561  -37.8681   24.1072 C   0  0  0  0  0  0
    4.3408  -39.2609   24.0903 C   0  0  0  0  0  0
    2.3294  -37.8118   24.5348 C   0  0  0  0  0  0
    3.3657  -37.4355   21.6465 C   0  0  0  0  0  0
    2.7484  -38.4874   21.5414 O   0  0  0  0  0  0
    4.8400  -35.0256   21.7165 N   0  0  0  0  0  0
    4.1652  -35.3669   20.5274 C   0  0  0  0  0  0
    4.1797  -34.6519   19.5273 O   0  0  0  0  0  0
    3.4695  -36.5662   20.5574 N   0  0  0  0  0  0
    5.5606  -33.7273   21.7042 C   0  0  0  0  0  0
    6.6959  -33.7615   20.8466 O   0  0  0  0  0  0
    7.5371  -32.6201   21.0386 C   0  0  0  0  0  0
    6.8848  -31.3749   20.4908 C   0  0  0  0  0  0
    3.0036  -36.8307   19.7314 H   0  0  0  0  0  0
  1  2  1  0  0  0
  1  6  1  0  0  0
  1  7  1  0  0  0
  2  3  1  0  0  0
  3  4  1  0  0  0
  4  5  1  0  0  0
  5  6  1  0  0  0
  7  8  1  0  0  0
  8  9  2  0  0  0
  8 15  1  0  0  0
  9 10  1  0  0  0
  9 13  1  0  0  0
 10 11  1  0  0  0
 10 12  1  0  0  0
 13 14  2  0  0  0
 13 18  1  0  0  0
 15 16  1  0  0  0
 15 19  1  0  0  0
 16 17  2  0  0  0
 16 18  1  0  0  0
 18 23  1  0  0  0
 19 20  1  0  0  0
 20 21  1  0  0  0
 21 22  1  0  0  0
M  END
>  <CHROM.0>
-177.55356982,-24.52130758,0.44985534

>  <CHROM.1>
123.85628101,109.54431673,-117.57360635,112.82778155,-168.16435642,-71.40001626
5.81944966,-35.61087019,22.74065233,-0.22940547,0.52153057,2.36075836

>  <FORMUL>
      612    C16 H26 N2 O3 S1

>  <HET>
 612  A 999      22

>  <HETNAM>
     612 6-(cyclohexylsulfanyl)-1-(ethoxymethyl)-5-(1-methylethy
   2 612 l)pyrimidine-2,4(1H,3H)-dione

>  <HETSYN>
     612 TNK-6123

>  <Name>
612.pdb

>  <RI>
0

>  <Rbt.Current_Directory>
/home/malgorzata/Desktop/rDOCK_IFD/test9/IFD

>  <Rbt.Executable>
rbdock ($Id: //depot/dev/client3/rdock/2013.1/src/exe/rbdock.cxx#4 $)

>  <Rbt.Library>
libRbt.so (2013.1, Build901 2013/11/27)

>  <Rbt.Parameter_File>
/home/malgorzata/Desktop/rDock_2013.1_src/data/scripts/hard_docking.prm

>  <Rbt.Receptor>
cavity.prm

>  <SCORE>
-18.5285

>  <SCORE.INTER>
-0.38324

>  <SCORE.INTER.CONST>
1

>  <SCORE.INTER.POLAR>
0

>  <SCORE.INTER.REPUL>
0.164901

>  <SCORE.INTER.ROT>
6

>  <SCORE.INTER.VDW>
-12.6077

>  <SCORE.INTER.norm>
-0.01742

>  <SCORE.INTRA>
0.291959

>  <SCORE.INTRA.DIHEDRAL>
-3.27902

>  <SCORE.INTRA.DIHEDRAL.0>
11.8882

>  <SCORE.INTRA.POLAR>
0

>  <SCORE.INTRA.POLAR.0>
0

>  <SCORE.INTRA.REPUL>
0

>  <SCORE.INTRA.REPUL.0>
0

>  <SCORE.INTRA.VDW>
1.93147

>  <SCORE.INTRA.VDW.0>
-3.04122

>  <SCORE.INTRA.norm>
0.0132709

>  <SCORE.RESTR>
0.425093

>  <SCORE.RESTR.CAVITY>
0.425093

>  <SCORE.RESTR.norm>
0.0193224

>  <SCORE.SYSTEM>
-18.8623

>  <SCORE.SYSTEM.CONST>
0

>  <SCORE.SYSTEM.DIHEDRAL>
0.827867

>  <SCORE.SYSTEM.VDW>
-19.2763

>  <SCORE.SYSTEM.norm>
-0.857379

>  <SCORE.heavy>
22

>  <SCORE.norm>
-0.842205

$$$$
612.pdb
  rDOCK(R)          3D
libRbt.so/2013.1/901 2013/11/27
 23 24  0  0  0  0  0  0  0  0999 V2000
    7.2125  -34.8665   24.1924 C   0  0  0  0  0  0
    7.2525  -36.3619   24.4706 C   0  0  0  0  0  0
    8.6708  -36.8421   24.6322 C   0  0  0  0  0  0
    9.4998  -36.5046   23.3968 C   0  0  0  0  0  0
    9.4688  -35.0047   23.1331 C   0  0  0  0  0  0
    8.0405  -34.5375   22.9579 C   0  0  0  0  0  0
    5.4599  -34.4878   23.8361 S   0  0  0  0  0  0
    4.9336  -35.4849   22.3570 C   0  0  0  0  0  0
    4.5263  -36.8050   22.4900 C   0  0  0  0  0  0
    4.1796  -37.4796   23.8305 C   0  0  0  0  0  0
    4.9165  -38.7719   24.0933 C   0  0  0  0  0  0
    2.7176  -37.5442   24.1128 C   0  0  0  0  0  0
    4.2046  -37.5804   21.3039 C   0  0  0  0  0  0
    3.8907  -38.7633   21.3303 O   0  0  0  0  0  0
    5.0154  -34.8818   21.0877 N   0  0  0  0  0  0
    4.6972  -35.5850   19.9086 C   0  0  0  0  0  0
    4.7431  -35.0676   18.7943 O   0  0  0  0  0  0
    4.3166  -36.9069   20.0847 N   0  0  0  0  0  0
    5.3924  -33.4564   20.9117 C   0  0  0  0  0  0
    6.7653  -33.3121   20.5656 O   0  0  0  0  0  0
    7.1176  -31.9400   20.3647 C   0  0  0  0  0  0
    7.2398  -31.2188   21.6842 C   0  0  0  0  0  0
    4.1048  -37.4205   19.2719 H   0  0  0  0  0  0
  1  2  1  0  0  0
  1  6  1  0  0  0
  1  7  1  0  0  0
  2  3  1  0  0  0
  3  4  1  0  0  0
  4  5  1  0  0  0
  5  6  1  0  0  0
  7  8  1  0  0  0
  8  9  2  0  0  0
  8 15  1  0  0  0
  9 10  1  0  0  0
  9 13  1  0  0  0
 10 11  1  0  0  0
 10 12  1  0  0  0
 13 14  2  0  0  0
 13 18  1  0  0  0
 15 16  1  0  0  0
 15 19  1  0  0  0
 16 17  2  0  0  0
 16 18  1  0  0  0
 18 23  1  0  0  0
 19 20  1  0  0  0
 20 21  1  0  0  0
 21 22  1  0  0  0
M  END
>  <CHROM.0>
-4.45077467,-149.20592467,0.77175734

>  <CHROM.1>
-60.01191610,83.11686912,-127.04771064,98.86267304,178.57703840,75.52025426
5.90109227,-35.53480695,22.31061998,-0.77211590,0.63428588,2.39704499

>  <FORMUL>
      612    C16 H26 N2 O3 S1

>  <HET>
 612  A 999      22

>  <HETNAM>
     612 6-(cyclohexylsulfanyl)-1-(ethoxymethyl)-5-(1-methylethy
   2 612 l)pyrimidine-2,4(1H,3H)-dione

>  <HETSYN>
     612 TNK-6123

>  <Name>
612.pdb

>  <RI>
0

>  <Rbt.Current_Directory>
/home/malgorzata/Desktop/rDOCK_IFD/test9/IFD

>  <Rbt.Executable>
rbdock ($Id: //depot/dev/client3/rdock/2013.1/src/exe/rbdock.cxx#4 $)

>  <Rbt.Library>
libRbt.so (2013.1, Build901 2013/11/27)

>  <Rbt.Parameter_File>
/home/malgorzata/Desktop/rDock_2013.1_src/data/scripts/hard_docking.prm

>  <Rbt.Receptor>
cavity.prm

>  <SCORE>
-21.3572

>  <SCORE.INTER>
-2.69522

>  <SCORE.INTER.CONST>
1

>  <SCORE.INTER.POLAR>
-0.369233

>  <SCORE.INTER.REPUL>
0.0367229

>  <SCORE.INTER.ROT>
6

>  <SCORE.INTER.VDW>
-13.0234

>  <SCORE.INTER.norm>
-0.12251

>  <SCORE.INTRA>
-1.82808

>  <SCORE.INTRA.DIHEDRAL>
-5.87511

>  <SCORE.INTRA.DIHEDRAL.0>
11.8882

>  <SCORE.INTRA.POLAR>
0

>  <SCORE.INTRA.POLAR.0>
0

>  <SCORE.INTRA.REPUL>
0

>  <SCORE.INTRA.REPUL.0>
0

>  <SCORE.INTRA.VDW>
1.10947

>  <SCORE.INTRA.VDW.0>
-3.04122

>  <SCORE.INTRA.norm>
-0.0830947

>  <SCORE.RESTR>
0.304801

>  <SCORE.RESTR.CAVITY>
0.304801

>  <SCORE.RESTR.norm>
0.0138546

>  <SCORE.SYSTEM>
-17.1387

>  <SCORE.SYSTEM.CONST>
0

>  <SCORE.SYSTEM.DIHEDRAL>
1.2999

>  <SCORE.SYSTEM.REPUL>
0.197192

>  <SCORE.SYSTEM.VDW>
-18.7746

>  <SCORE.SYSTEM.norm>
-0.77903

>  <SCORE.heavy>
22

>  <SCORE.norm>
-0.97078

$$$$
