TOL.pdb
  rDOCK(R)          3D
libRbt.so/2013.1/901 2013/11/27
 25 26  0  0  0  0  0  0  0  0999 V2000
   16.1517   29.7915   66.1136 C   0  0  0  0  0  0
   15.5503   30.8276   66.7506 F   0  0  0  0  0  0
   15.2835   28.7462   66.1526 F   0  0  0  0  0  0
   16.3111   30.1351   64.8077 F   0  0  0  0  0  0
   17.5111   29.4410   66.7567 C   0  0  0  0  0  0
   18.7538   29.5335   66.0777 C   0  0  0  0  0  0
   18.7838   29.9400   64.8214 O   0  0  0  0  0  0
   18.7880   28.8678   63.8933 C   0  0  0  0  0  0
   19.9415   29.1848   66.7575 C   0  0  0  0  0  0
   19.9050   28.7520   68.0878 C   0  0  0  0  0  0
   18.6730   28.6566   68.7645 C   0  0  0  0  0  0
   18.6496   28.2163   70.1085 C   0  0  0  0  0  0
   17.4211   28.1225   70.7829 C   0  0  0  0  0  0
   16.2308   28.4589   70.1342 C   0  0  0  0  0  0
   16.2592   28.8950   68.8036 C   0  0  0  0  0  0
   17.4768   28.9984   68.1056 C   0  0  0  0  0  0
   19.8865   27.8331   70.8863 C   0  0  0  0  0  0
   20.5522   26.2660   70.6928 S   0  0  0  0  0  0
   20.4533   28.7232   71.7023 N   0  0  0  0  0  0
   19.9301   30.0833   71.7675 C   0  0  0  0  0  0
   21.6066   28.3793   72.5278 C   0  0  0  0  0  0
   22.9103   28.9531   71.9469 C   0  0  0  0  0  0
   23.2134   30.1106   72.0704 O   0  0  0  0  0  0
   23.6863   28.0749   71.3021 O   0  0  0  0  0  0
   24.4470   28.3711   70.8422 H   0  0  0  0  0  0
  1  2  1  0  0  0
  1  3  1  0  0  0
  1  4  1  0  0  0
  1  5  1  0  0  0
  5  6  2  0  0  0
  5 16  1  0  0  0
  6  7  1  0  0  0
  6  9  1  0  0  0
  7  8  1  0  0  0
  9 10  2  0  0  0
 10 11  1  0  0  0
 11 12  2  0  0  0
 11 16  1  0  0  0
 12 13  1  0  0  0
 12 17  1  0  0  0
 13 14  2  0  0  0
 14 15  1  0  0  0
 15 16  2  0  0  0
 17 18  2  0  0  0
 17 19  1  0  0  0
 19 20  1  0  0  0
 19 21  1  0  0  0
 21 22  1  0  0  0
 22 23  2  0  0  0
 22 24  1  0  0  0
 24 25  1  0  0  0
M  END
>  <CHROM.0>
-35.62726425,55.04698695,122.31838499,145.73960871,-33.83925653,57.12785471
140.33777981,61.40496153,-61.18859492,-61.54190337,36.50439144,-61.41326028
-60.50081437,9.39916436

>  <CHROM.1>
-117.62776311,-95.26679031,-81.90976859,103.50742111,77.80180161,173.25135864
18.95120457,28.87496858,68.73794612,2.27230389,-0.00711664,-1.35312455

>  <FORMUL>
      TOL    C16 H14 F3 N1 O3 S1

>  <HET>
 TOL  A 320      24

>  <HETNAM>
     TOL TOLRESTAT

>  <Name>
TOL.pdb

>  <RI>
0

>  <Rbt.Current_Directory>
/home/malgorzata/Desktop/rDOCK_IFD/Wyniki/1_aldose_rductase

>  <Rbt.Executable>
rbdock ($Id: //depot/dev/client3/rdock/2013.1/src/exe/rbdock.cxx#4 $)

>  <Rbt.Library>
libRbt.so (2013.1, Build901 2013/11/27)

>  <Rbt.Parameter_File>
/home/malgorzata/Desktop/rDock_2013.1_src/data/scripts/soft_docking.prm

>  <Rbt.Receptor>
cavity.prm

>  <SCORE>
-44.8098

>  <SCORE.INTER>
-30.2266

>  <SCORE.INTER.CONST>
1

>  <SCORE.INTER.POLAR>
-0.74934

>  <SCORE.INTER.REPUL>
0.0747836

>  <SCORE.INTER.ROT>
5

>  <SCORE.INTER.VDW>
-38.4528

>  <SCORE.INTER.norm>
-1.25944

>  <SCORE.INTRA>
-6.16893

>  <SCORE.INTRA.DIHEDRAL>
5.18543

>  <SCORE.INTRA.DIHEDRAL.0>
16.9783

>  <SCORE.INTRA.POLAR>
0

>  <SCORE.INTRA.POLAR.0>
0

>  <SCORE.INTRA.REPUL>
0

>  <SCORE.INTRA.REPUL.0>
0

>  <SCORE.INTRA.VDW>
-7.20602

>  <SCORE.INTRA.VDW.0>
4.87734

>  <SCORE.INTRA.norm>
-0.257039

>  <SCORE.RESTR>
0

>  <SCORE.RESTR.CAVITY>
0

>  <SCORE.RESTR.norm>
0

>  <SCORE.SYSTEM>
-8.41427

>  <SCORE.SYSTEM.CONST>
0

>  <SCORE.SYSTEM.DIHEDRAL>
9.85041

>  <SCORE.SYSTEM.POLAR>
-3.82687

>  <SCORE.SYSTEM.REPUL>
1.16943

>  <SCORE.SYSTEM.VDW>
-6.17526

>  <SCORE.SYSTEM.norm>
-0.350595

>  <SCORE.heavy>
24

>  <SCORE.norm>
-1.86708

$$$$
TOL.pdb
  rDOCK(R)          3D
libRbt.so/2013.1/901 2013/11/27
 25 26  0  0  0  0  0  0  0  0999 V2000
   16.6616   29.2836   62.6442 C   0  0  0  0  0  0
   17.7103   30.1259   62.4666 F   0  0  0  0  0  0
   15.5555   30.0579   62.8024 F   0  0  0  0  0  0
   16.4948   28.5711   61.4982 F   0  0  0  0  0  0
   16.8870   28.3411   63.8463 C   0  0  0  0  0  0
   17.2148   26.9659   63.7218 C   0  0  0  0  0  0
   17.3421   26.4302   62.5213 O   0  0  0  0  0  0
   18.6945   26.2937   62.1173 C   0  0  0  0  0  0
   17.3967   26.1895   64.8872 C   0  0  0  0  0  0
   17.2582   26.7604   66.1574 C   0  0  0  0  0  0
   16.9305   28.1246   66.2851 C   0  0  0  0  0  0
   16.7920   28.6893   67.5747 C   0  0  0  0  0  0
   16.4664   30.0496   67.7013 C   0  0  0  0  0  0
   16.2788   30.8405   66.5655 C   0  0  0  0  0  0
   16.4177   30.2771   65.2908 C   0  0  0  0  0  0
   16.7440   28.9169   65.1365 C   0  0  0  0  0  0
   16.9772   27.9094   68.8550 C   0  0  0  0  0  0
   15.6851   26.9586   69.4574 S   0  0  0  0  0  0
   18.1478   27.9587   69.4926 N   0  0  0  0  0  0
   19.2645   28.6889   68.9030 C   0  0  0  0  0  0
   18.3539   27.2807   70.7685 C   0  0  0  0  0  0
   18.4192   28.2794   71.9367 C   0  0  0  0  0  0
   19.4422   28.5141   72.5243 O   0  0  0  0  0  0
   17.2621   28.8736   72.2486 O   0  0  0  0  0  0
   16.5303   28.8087   71.6669 H   0  0  0  0  0  0
  1  2  1  0  0  0
  1  3  1  0  0  0
  1  4  1  0  0  0
  1  5  1  0  0  0
  5  6  2  0  0  0
  5 16  1  0  0  0
  6  7  1  0  0  0
  6  9  1  0  0  0
  7  8  1  0  0  0
  9 10  2  0  0  0
 10 11  1  0  0  0
 11 12  2  0  0  0
 11 16  1  0  0  0
 12 13  1  0  0  0
 12 17  1  0  0  0
 13 14  2  0  0  0
 14 15  1  0  0  0
 15 16  2  0  0  0
 17 18  2  0  0  0
 17 19  1  0  0  0
 19 20  1  0  0  0
 19 21  1  0  0  0
 21 22  1  0  0  0
 22 23  2  0  0  0
 22 24  1  0  0  0
 24 25  1  0  0  0
M  END
>  <CHROM.0>
-10.28572767,43.80681315,-139.54544962,141.44280478,-70.13986428,-50.57684666
151.34484167,-155.96053936,-61.18859492,-61.54190337,-149.76303931,-61.41326028
-60.50081437,103.41977260

>  <CHROM.1>
-105.51921941,100.48185998,-82.06009967,-106.97726364,-109.30519082,-12.46299522
17.19389429,28.31518682,66.51715819,1.88067203,1.23485665,-1.82956119

>  <FORMUL>
      TOL    C16 H14 F3 N1 O3 S1

>  <HET>
 TOL  A 320      24

>  <HETNAM>
     TOL TOLRESTAT

>  <Name>
TOL.pdb

>  <RI>
0

>  <Rbt.Current_Directory>
/home/malgorzata/Desktop/rDOCK_IFD/Wyniki/1_aldose_rductase

>  <Rbt.Executable>
rbdock ($Id: //depot/dev/client3/rdock/2013.1/src/exe/rbdock.cxx#4 $)

>  <Rbt.Library>
libRbt.so (2013.1, Build901 2013/11/27)

>  <Rbt.Parameter_File>
/home/malgorzata/Desktop/rDock_2013.1_src/data/scripts/soft_docking.prm

>  <Rbt.Receptor>
cavity.prm

>  <SCORE>
-42.3248

>  <SCORE.INTER>
-21.8818

>  <SCORE.INTER.CONST>
1

>  <SCORE.INTER.POLAR>
-0.10889

>  <SCORE.INTER.REPUL>
0

>  <SCORE.INTER.ROT>
5

>  <SCORE.INTER.VDW>
-31.9116

>  <SCORE.INTER.norm>
-0.911742

>  <SCORE.INTRA>
-5.92428

>  <SCORE.INTRA.DIHEDRAL>
5.76315

>  <SCORE.INTRA.DIHEDRAL.0>
16.9783

>  <SCORE.INTRA.POLAR>
0

>  <SCORE.INTRA.POLAR.0>
0

>  <SCORE.INTRA.REPUL>
0

>  <SCORE.INTRA.REPUL.0>
0

>  <SCORE.INTRA.VDW>
-7.07691

>  <SCORE.INTRA.VDW.0>
4.87734

>  <SCORE.INTRA.norm>
-0.246845

>  <SCORE.RESTR>
0

>  <SCORE.RESTR.CAVITY>
0

>  <SCORE.RESTR.norm>
0

>  <SCORE.SYSTEM>
-14.5187

>  <SCORE.SYSTEM.CONST>
0

>  <SCORE.SYSTEM.DIHEDRAL>
9.09832

>  <SCORE.SYSTEM.POLAR>
-4.84493

>  <SCORE.SYSTEM.REPUL>
1.16943

>  <SCORE.SYSTEM.VDW>
-8.44224

>  <SCORE.SYSTEM.norm>
-0.604945

>  <SCORE.heavy>
24

>  <SCORE.norm>
-1.76353

$$$$
TOL.pdb
  rDOCK(R)          3D
libRbt.so/2013.1/901 2013/11/27
 25 26  0  0  0  0  0  0  0  0999 V2000
   16.2940   29.9106   65.1845 C   0  0  0  0  0  0
   16.6349   30.8080   64.2257 F   0  0  0  0  0  0
   15.4844   30.5594   66.0629 F   0  0  0  0  0  0
   15.5531   28.9313   64.6006 F   0  0  0  0  0  0
   17.5404   29.3155   65.8748 C   0  0  0  0  0  0
   18.7307   28.9613   65.1879 C   0  0  0  0  0  0
   18.8092   29.1389   63.8815 O   0  0  0  0  0  0
   19.0049   27.9281   63.1697 C   0  0  0  0  0  0
   19.8139   28.4199   65.9143 C   0  0  0  0  0  0
   19.7256   28.2308   67.2981 C   0  0  0  0  0  0
   18.5447   28.5789   67.9831 C   0  0  0  0  0  0
   18.4677   28.3815   69.3817 C   0  0  0  0  0  0
   17.2906   28.7297   70.0642 C   0  0  0  0  0  0
   16.2030   29.2652   69.3704 C   0  0  0  0  0  0
   16.2844   29.4595   67.9858 C   0  0  0  0  0  0
   17.4525   29.1194   67.2785 C   0  0  0  0  0  0
   19.5937   27.8096   70.2104 C   0  0  0  0  0  0
   19.6796   26.1169   70.4623 S   0  0  0  0  0  0
   20.5147   28.6270   70.7232 N   0  0  0  0  0  0
   20.4790   30.0502   70.4051 C   0  0  0  0  0  0
   21.5811   28.1323   71.5881 C   0  0  0  0  0  0
   22.5977   27.2837   70.8052 C   0  0  0  0  0  0
   23.0159   27.6154   69.7273 O   0  0  0  0  0  0
   22.9895   26.1563   71.4091 O   0  0  0  0  0  0
   22.3609   25.4932   71.6167 H   0  0  0  0  0  0
  1  2  1  0  0  0
  1  3  1  0  0  0
  1  4  1  0  0  0
  1  5  1  0  0  0
  5  6  2  0  0  0
  5 16  1  0  0  0
  6  7  1  0  0  0
  6  9  1  0  0  0
  7  8  1  0  0  0
  9 10  2  0  0  0
 10 11  1  0  0  0
 11 12  2  0  0  0
 11 16  1  0  0  0
 12 13  1  0  0  0
 12 17  1  0  0  0
 13 14  2  0  0  0
 14 15  1  0  0  0
 15 16  2  0  0  0
 17 18  2  0  0  0
 17 19  1  0  0  0
 19 20  1  0  0  0
 19 21  1  0  0  0
 21 22  1  0  0  0
 22 23  2  0  0  0
 22 24  1  0  0  0
 24 25  1  0  0  0
M  END
>  <CHROM.0>
52.93388383,65.81994522,2.72093425,158.66795702,174.16083672,58.95819389
107.23079197,-168.73136751,-61.18859492,-61.54190337,-175.14482596,-61.41326028
-60.50081437,142.22313950

>  <CHROM.1>
-39.88364474,-118.25088688,-90.60215459,70.01306690,43.83894305,60.93547430
18.84715146,28.55279465,67.89055094,2.25461253,0.37396601,-1.49067555

>  <FORMUL>
      TOL    C16 H14 F3 N1 O3 S1

>  <HET>
 TOL  A 320      24

>  <HETNAM>
     TOL TOLRESTAT

>  <Name>
TOL.pdb

>  <RI>
0

>  <Rbt.Current_Directory>
/home/malgorzata/Desktop/rDOCK_IFD/Wyniki/1_aldose_rductase

>  <Rbt.Executable>
rbdock ($Id: //depot/dev/client3/rdock/2013.1/src/exe/rbdock.cxx#4 $)

>  <Rbt.Library>
libRbt.so (2013.1, Build901 2013/11/27)

>  <Rbt.Parameter_File>
/home/malgorzata/Desktop/rDock_2013.1_src/data/scripts/soft_docking.prm

>  <Rbt.Receptor>
cavity.prm

>  <SCORE>
-47.6801

>  <SCORE.INTER>
-36.6028

>  <SCORE.INTER.CONST>
1

>  <SCORE.INTER.POLAR>
-3.27587

>  <SCORE.INTER.REPUL>
0.0583254

>  <SCORE.INTER.ROT>
5

>  <SCORE.INTER.VDW>
-36.1564

>  <SCORE.INTER.norm>
-1.52511

>  <SCORE.INTRA>
0.759236

>  <SCORE.INTRA.DIHEDRAL>
21.6837

>  <SCORE.INTRA.DIHEDRAL.0>
16.9783

>  <SCORE.INTRA.POLAR>
0

>  <SCORE.INTRA.POLAR.0>
0

>  <SCORE.INTRA.REPUL>
0

>  <SCORE.INTRA.REPUL.0>
0

>  <SCORE.INTRA.VDW>
-3.57751

>  <SCORE.INTRA.VDW.0>
4.87734

>  <SCORE.INTRA.norm>
0.0316348

>  <SCORE.RESTR>
0

>  <SCORE.RESTR.CAVITY>
0

>  <SCORE.RESTR.norm>
0

>  <SCORE.SYSTEM>
-11.8366

>  <SCORE.SYSTEM.CONST>
0

>  <SCORE.SYSTEM.DIHEDRAL>
5.82778

>  <SCORE.SYSTEM.POLAR>
-4.11188

>  <SCORE.SYSTEM.REPUL>
1.16943

>  <SCORE.SYSTEM.VDW>
-6.61723

>  <SCORE.SYSTEM.norm>
-0.493191

>  <SCORE.heavy>
24

>  <SCORE.norm>
-1.98667

$$$$
TOL.pdb
  rDOCK(R)          3D
libRbt.so/2013.1/901 2013/11/27
 25 26  0  0  0  0  0  0  0  0999 V2000
   22.9293   28.6699   72.3894 C   0  0  0  0  0  0
   23.9720   27.8130   72.5282 F   0  0  0  0  0  0
   22.3911   28.8408   73.6261 F   0  0  0  0  0  0
   23.4229   29.8737   71.9944 F   0  0  0  0  0  0
   21.8927   28.1437   71.3732 C   0  0  0  0  0  0
   22.0787   26.9771   70.5868 C   0  0  0  0  0  0
   23.1926   26.2778   70.7077 O   0  0  0  0  0  0
   23.1605   25.3706   71.7972 C   0  0  0  0  0  0
   21.0680   26.5836   69.6825 C   0  0  0  0  0  0
   19.8903   27.3288   69.5555 C   0  0  0  0  0  0
   19.7031   28.4890   70.3326 C   0  0  0  0  0  0
   18.5088   29.2343   70.1937 C   0  0  0  0  0  0
   18.3223   30.3901   70.9696 C   0  0  0  0  0  0
   19.3064   30.8035   71.8704 C   0  0  0  0  0  0
   20.4868   30.0619   72.0048 C   0  0  0  0  0  0
   20.6980   28.8998   71.2398 C   0  0  0  0  0  0
   17.3935   28.8606   69.2460 C   0  0  0  0  0  0
   15.9323   28.2224   69.8737 S   0  0  0  0  0  0
   17.5539   29.0454   67.9348 N   0  0  0  0  0  0
   18.7642   29.6890   67.4359 C   0  0  0  0  0  0
   16.5351   28.6354   66.9735 C   0  0  0  0  0  0
   16.8210   27.2336   66.4083 C   0  0  0  0  0  0
   17.9272   26.8819   66.0927 O   0  0  0  0  0  0
   15.7563   26.4311   66.2993 O   0  0  0  0  0  0
   15.7387   25.6119   66.7537 H   0  0  0  0  0  0
  1  2  1  0  0  0
  1  3  1  0  0  0
  1  4  1  0  0  0
  1  5  1  0  0  0
  5  6  2  0  0  0
  5 16  1  0  0  0
  6  7  1  0  0  0
  6  9  1  0  0  0
  7  8  1  0  0  0
  9 10  2  0  0  0
 10 11  1  0  0  0
 11 12  2  0  0  0
 11 16  1  0  0  0
 12 13  1  0  0  0
 12 17  1  0  0  0
 13 14  2  0  0  0
 14 15  1  0  0  0
 15 16  2  0  0  0
 17 18  2  0  0  0
 17 19  1  0  0  0
 19 20  1  0  0  0
 19 21  1  0  0  0
 21 22  1  0  0  0
 22 23  2  0  0  0
 22 24  1  0  0  0
 24 25  1  0  0  0
M  END
>  <CHROM.0>
38.20439026,-50.49883694,74.21283055,138.66465616,173.14161583,40.04295838
74.30020271,-145.60102812,-61.18859492,-61.54190337,-50.69451330,-61.41326028
-60.50081437,-128.94615845

>  <CHROM.1>
-5.92434185,83.12802266,107.25354960,-94.64765055,-42.07983093,-120.80570992
19.81963258,28.24909376,70.07998343,0.44056848,-0.47939115,0.75501391

>  <FORMUL>
      TOL    C16 H14 F3 N1 O3 S1

>  <HET>
 TOL  A 320      24

>  <HETNAM>
     TOL TOLRESTAT

>  <Name>
TOL.pdb

>  <RI>
0

>  <Rbt.Current_Directory>
/home/malgorzata/Desktop/rDOCK_IFD/Wyniki/1_aldose_rductase

>  <Rbt.Executable>
rbdock ($Id: //depot/dev/client3/rdock/2013.1/src/exe/rbdock.cxx#4 $)

>  <Rbt.Library>
libRbt.so (2013.1, Build901 2013/11/27)

>  <Rbt.Parameter_File>
/home/malgorzata/Desktop/rDock_2013.1_src/data/scripts/soft_docking.prm

>  <Rbt.Receptor>
cavity.prm

>  <SCORE>
-40.1017

>  <SCORE.INTER>
-29.3178

>  <SCORE.INTER.CONST>
1

>  <SCORE.INTER.POLAR>
-1.61836

>  <SCORE.INTER.REPUL>
0.246914

>  <SCORE.INTER.ROT>
5

>  <SCORE.INTER.VDW>
-35.45

>  <SCORE.INTER.norm>
-1.22158

>  <SCORE.INTRA>
-1.99777

>  <SCORE.INTRA.DIHEDRAL>
20.9267

>  <SCORE.INTRA.DIHEDRAL.0>
16.9783

>  <SCORE.INTRA.POLAR>
0

>  <SCORE.INTRA.POLAR.0>
0

>  <SCORE.INTRA.REPUL>
0

>  <SCORE.INTRA.REPUL.0>
0

>  <SCORE.INTRA.VDW>
-6.18311

>  <SCORE.INTRA.VDW.0>
4.87734

>  <SCORE.INTRA.norm>
-0.0832404

>  <SCORE.RESTR>
0.296607

>  <SCORE.RESTR.CAVITY>
0.0593214

>  <SCORE.RESTR.norm>
0.0123586

>  <SCORE.SYSTEM>
-9.08269

>  <SCORE.SYSTEM.CONST>
0

>  <SCORE.SYSTEM.DIHEDRAL>
8.35938

>  <SCORE.SYSTEM.POLAR>
-3.43749

>  <SCORE.SYSTEM.REPUL>
1.16943

>  <SCORE.SYSTEM.VDW>
-7.42209

>  <SCORE.SYSTEM.norm>
-0.378445

>  <SCORE.heavy>
24

>  <SCORE.norm>
-1.6709

$$$$
TOL.pdb
  rDOCK(R)          3D
libRbt.so/2013.1/901 2013/11/27
 25 26  0  0  0  0  0  0  0  0999 V2000
   22.8645   28.7011   73.1964 C   0  0  0  0  0  0
   23.5238   29.7143   72.5803 F   0  0  0  0  0  0
   23.8094   27.8616   73.6969 F   0  0  0  0  0  0
   22.1860   29.2212   74.2537 F   0  0  0  0  0  0
   21.9008   27.9794   72.2295 C   0  0  0  0  0  0
   22.1828   26.7296   71.6193 C   0  0  0  0  0  0
   23.3277   26.1218   71.8726 O   0  0  0  0  0  0
   24.4471   26.8030   71.3306 C   0  0  0  0  0  0
   21.2331   26.1560   70.7457 C   0  0  0  0  0  0
   20.0223   26.8046   70.4779 C   0  0  0  0  0  0
   19.7398   28.0467   71.0798 C   0  0  0  0  0  0
   18.5129   28.6927   70.7997 C   0  0  0  0  0  0
   18.2314   29.9304   71.4011 C   0  0  0  0  0  0
   19.1537   30.5216   72.2675 C   0  0  0  0  0  0
   20.3667   29.8777   72.5423 C   0  0  0  0  0  0
   20.6727   28.6368   71.9533 C   0  0  0  0  0  0
   17.4594   28.1265   69.8770 C   0  0  0  0  0  0
   16.0733   27.3709   70.5432 S   0  0  0  0  0  0
   17.6139   28.2344   68.5565 N   0  0  0  0  0  0
   18.7486   28.9758   68.0173 C   0  0  0  0  0  0
   16.6606   27.6424   67.6233 C   0  0  0  0  0  0
   15.8294   28.7185   66.9039 C   0  0  0  0  0  0
   15.8441   28.8483   65.7081 O   0  0  0  0  0  0
   15.0841   29.4942   67.6990 O   0  0  0  0  0  0
   14.4770   30.1021   67.3251 H   0  0  0  0  0  0
  1  2  1  0  0  0
  1  3  1  0  0  0
  1  4  1  0  0  0
  1  5  1  0  0  0
  5  6  2  0  0  0
  5 16  1  0  0  0
  6  7  1  0  0  0
  6  9  1  0  0  0
  7  8  1  0  0  0
  9 10  2  0  0  0
 10 11  1  0  0  0
 11 12  2  0  0  0
 11 16  1  0  0  0
 12 13  1  0  0  0
 12 17  1  0  0  0
 13 14  2  0  0  0
 14 15  1  0  0  0
 15 16  2  0  0  0
 17 18  2  0  0  0
 17 19  1  0  0  0
 19 20  1  0  0  0
 19 21  1  0  0  0
 21 22  1  0  0  0
 22 23  2  0  0  0
 22 24  1  0  0  0
 24 25  1  0  0  0
M  END
>  <CHROM.0>
-48.71985382,-53.37737904,179.45108617,127.92774427,6.93141931,167.79884901
131.70470713,106.69504753,-61.18859492,-61.54190337,175.23889730,-61.41326028
-60.50081437,48.64814296

>  <CHROM.1>
102.03339895,-68.37011029,101.97926762,109.47066814,119.51675713,-172.79090932
19.72654360,28.27952847,70.74068658,0.43160775,-0.44603543,0.91277113

>  <FORMUL>
      TOL    C16 H14 F3 N1 O3 S1

>  <HET>
 TOL  A 320      24

>  <HETNAM>
     TOL TOLRESTAT

>  <Name>
TOL.pdb

>  <RI>
0

>  <Rbt.Current_Directory>
/home/malgorzata/Desktop/rDOCK_IFD/Wyniki/1_aldose_rductase

>  <Rbt.Executable>
rbdock ($Id: //depot/dev/client3/rdock/2013.1/src/exe/rbdock.cxx#4 $)

>  <Rbt.Library>
libRbt.so (2013.1, Build901 2013/11/27)

>  <Rbt.Parameter_File>
/home/malgorzata/Desktop/rDock_2013.1_src/data/scripts/soft_docking.prm

>  <Rbt.Receptor>
cavity.prm

>  <SCORE>
-40.2244

>  <SCORE.INTER>
-31.8491

>  <SCORE.INTER.CONST>
1

>  <SCORE.INTER.POLAR>
-2.08548

>  <SCORE.INTER.REPUL>
0.0718157

>  <SCORE.INTER.ROT>
5

>  <SCORE.INTER.VDW>
-35.5176

>  <SCORE.INTER.norm>
-1.32705

>  <SCORE.INTRA>
-4.02298

>  <SCORE.INTRA.DIHEDRAL>
4.28707

>  <SCORE.INTRA.DIHEDRAL.0>
16.9783

>  <SCORE.INTRA.POLAR>
0

>  <SCORE.INTRA.POLAR.0>
0

>  <SCORE.INTRA.REPUL>
0

>  <SCORE.INTRA.REPUL.0>
0

>  <SCORE.INTRA.VDW>
-4.8804

>  <SCORE.INTRA.VDW.0>
4.87734

>  <SCORE.INTRA.norm>
-0.167624

>  <SCORE.RESTR>
0.0133728

>  <SCORE.RESTR.CAVITY>
0.00267455

>  <SCORE.RESTR.norm>
0.000557198

>  <SCORE.SYSTEM>
-4.36561

>  <SCORE.SYSTEM.CONST>
0

>  <SCORE.SYSTEM.DIHEDRAL>
14.9373

>  <SCORE.SYSTEM.POLAR>
-3.46758

>  <SCORE.SYSTEM.REPUL>
1.29869

>  <SCORE.SYSTEM.VDW>
-6.53793

>  <SCORE.SYSTEM.norm>
-0.181901

>  <SCORE.heavy>
24

>  <SCORE.norm>
-1.67602

$$$$
TOL.pdb
  rDOCK(R)          3D
libRbt.so/2013.1/901 2013/11/27
 25 26  0  0  0  0  0  0  0  0999 V2000
   23.6750   26.6964   74.1791 C   0  0  0  0  0  0
   24.9471   26.7895   73.7167 F   0  0  0  0  0  0
   23.3513   25.3760   74.1819 F   0  0  0  0  0  0
   23.6649   27.1169   75.4721 F   0  0  0  0  0  0
   22.6971   27.5317   73.3247 C   0  0  0  0  0  0
   22.1733   28.7885   73.7248 C   0  0  0  0  0  0
   22.5231   29.3015   74.8905 O   0  0  0  0  0  0
   23.8340   29.8424   74.8856 C   0  0  0  0  0  0
   21.2809   29.4706   72.8688 C   0  0  0  0  0  0
   20.9107   28.9223   71.6357 C   0  0  0  0  0  0
   21.4267   27.6737   71.2360 C   0  0  0  0  0  0
   21.0435   27.1297   69.9878 C   0  0  0  0  0  0
   21.5592   25.8855   69.5895 C   0  0  0  0  0  0
   22.4419   25.1881   70.4173 C   0  0  0  0  0  0
   22.8189   25.7312   71.6519 C   0  0  0  0  0  0
   22.3171   26.9762   72.0742 C   0  0  0  0  0  0
   20.0960   27.8142   69.0309 C   0  0  0  0  0  0
   20.7287   28.7730   67.7595 S   0  0  0  0  0  0
   18.7802   27.6522   69.1784 N   0  0  0  0  0  0
   18.2714   26.7459   70.2019 C   0  0  0  0  0  0
   17.8227   28.3479   68.3245 C   0  0  0  0  0  0
   17.4673   29.7355   68.8854 C   0  0  0  0  0  0
   16.5167   30.3612   68.4958 O   0  0  0  0  0  0
   18.2836   30.1942   69.8407 O   0  0  0  0  0  0
   19.0386   29.6984   70.0896 H   0  0  0  0  0  0
  1  2  1  0  0  0
  1  3  1  0  0  0
  1  4  1  0  0  0
  1  5  1  0  0  0
  5  6  2  0  0  0
  5 16  1  0  0  0
  6  7  1  0  0  0
  6  9  1  0  0  0
  7  8  1  0  0  0
  9 10  2  0  0  0
 10 11  1  0  0  0
 11 12  2  0  0  0
 11 16  1  0  0  0
 12 13  1  0  0  0
 12 17  1  0  0  0
 13 14  2  0  0  0
 14 15  1  0  0  0
 15 16  2  0  0  0
 17 18  2  0  0  0
 17 19  1  0  0  0
 19 20  1  0  0  0
 19 21  1  0  0  0
 21 22  1  0  0  0
 22 23  2  0  0  0
 22 24  1  0  0  0
 24 25  1  0  0  0
M  END
>  <CHROM.0>
7.03561553,-40.58305834,69.66752724,133.44343591,172.13526492,-56.16466745
130.75660921,90.50450922,-61.18859492,-61.54190337,-179.26564614,-61.41326028
-60.50081437,99.91248058

>  <CHROM.1>
-103.20941491,75.70998549,95.27919908,-87.50451740,-164.98629725,3.36776522
21.22867877,27.87978998,71.41340154,-0.39135443,0.77478013,-2.32759916

>  <FORMUL>
      TOL    C16 H14 F3 N1 O3 S1

>  <HET>
 TOL  A 320      24

>  <HETNAM>
     TOL TOLRESTAT

>  <Name>
TOL.pdb

>  <RI>
0

>  <Rbt.Current_Directory>
/home/malgorzata/Desktop/rDOCK_IFD/Wyniki/1_aldose_rductase

>  <Rbt.Executable>
rbdock ($Id: //depot/dev/client3/rdock/2013.1/src/exe/rbdock.cxx#4 $)

>  <Rbt.Library>
libRbt.so (2013.1, Build901 2013/11/27)

>  <Rbt.Parameter_File>
/home/malgorzata/Desktop/rDock_2013.1_src/data/scripts/soft_docking.prm

>  <Rbt.Receptor>
cavity.prm

>  <SCORE>
-36.7943

>  <SCORE.INTER>
-23.3487

>  <SCORE.INTER.CONST>
1

>  <SCORE.INTER.POLAR>
-0.777305

>  <SCORE.INTER.REPUL>
0

>  <SCORE.INTER.ROT>
5

>  <SCORE.INTER.VDW>
-31.1058

>  <SCORE.INTER.norm>
-0.972861

>  <SCORE.INTRA>
-4.97144

>  <SCORE.INTRA.DIHEDRAL>
4.70462

>  <SCORE.INTRA.DIHEDRAL.0>
16.9783

>  <SCORE.INTRA.POLAR>
0

>  <SCORE.INTRA.POLAR.0>
0

>  <SCORE.INTRA.REPUL>
0

>  <SCORE.INTRA.REPUL.0>
0

>  <SCORE.INTRA.VDW>
-5.91236

>  <SCORE.INTRA.VDW.0>
4.87734

>  <SCORE.INTRA.norm>
-0.207143

>  <SCORE.RESTR>
1.88101

>  <SCORE.RESTR.CAVITY>
0.376202

>  <SCORE.RESTR.norm>
0.0783755

>  <SCORE.SYSTEM>
-10.3552

>  <SCORE.SYSTEM.CONST>
0

>  <SCORE.SYSTEM.DIHEDRAL>
6.08251

>  <SCORE.SYSTEM.POLAR>
-3.62838

>  <SCORE.SYSTEM.REPUL>
1.24287

>  <SCORE.SYSTEM.VDW>
-7.27432

>  <SCORE.SYSTEM.norm>
-0.431468

>  <SCORE.heavy>
24

>  <SCORE.norm>
-1.5331

$$$$
TOL.pdb
  rDOCK(R)          3D
libRbt.so/2013.1/901 2013/11/27
 25 26  0  0  0  0  0  0  0  0999 V2000
   19.1931   26.3707   62.8719 C   0  0  0  0  0  0
   18.6432   25.5907   61.9075 F   0  0  0  0  0  0
   20.3200   25.7393   63.2957 F   0  0  0  0  0  0
   19.5783   27.5416   62.2980 F   0  0  0  0  0  0
   18.2026   26.6282   64.0281 C   0  0  0  0  0  0
   16.8831   26.1072   64.0690 C   0  0  0  0  0  0
   16.4463   25.3543   63.0757 O   0  0  0  0  0  0
   15.6369   26.0678   62.1555 C   0  0  0  0  0  0
   16.0549   26.4063   65.1730 C   0  0  0  0  0  0
   16.5207   27.2068   66.2221 C   0  0  0  0  0  0
   17.8291   27.7278   66.1839 C   0  0  0  0  0  0
   18.2874   28.5368   67.2500 C   0  0  0  0  0  0
   19.5923   29.0549   67.2118 C   0  0  0  0  0  0
   20.4322   28.7769   66.1311 C   0  0  0  0  0  0
   19.9741   27.9748   65.0783 C   0  0  0  0  0  0
   18.6714   27.4429   65.0926 C   0  0  0  0  0  0
   17.4484   28.8875   68.4562 C   0  0  0  0  0  0
   16.6608   30.4079   68.5222 S   0  0  0  0  0  0
   17.3191   28.0044   69.4476 N   0  0  0  0  0  0
   17.9114   26.6776   69.3187 C   0  0  0  0  0  0
   16.5783   28.3223   70.6642 C   0  0  0  0  0  0
   15.0993   27.9155   70.5494 C   0  0  0  0  0  0
   14.6322   27.0066   71.1840 O   0  0  0  0  0  0
   14.3675   28.6466   69.7013 O   0  0  0  0  0  0
   13.4519   28.4735   69.6030 H   0  0  0  0  0  0
  1  2  1  0  0  0
  1  3  1  0  0  0
  1  4  1  0  0  0
  1  5  1  0  0  0
  5  6  2  0  0  0
  5 16  1  0  0  0
  6  7  1  0  0  0
  6  9  1  0  0  0
  7  8  1  0  0  0
  9 10  2  0  0  0
 10 11  1  0  0  0
 11 12  2  0  0  0
 11 16  1  0  0  0
 12 13  1  0  0  0
 12 17  1  0  0  0
 13 14  2  0  0  0
 14 15  1  0  0  0
 15 16  2  0  0  0
 17 18  2  0  0  0
 17 19  1  0  0  0
 19 20  1  0  0  0
 19 21  1  0  0  0
 21 22  1  0  0  0
 22 23  2  0  0  0
 22 24  1  0  0  0
 24 25  1  0  0  0
M  END
>  <CHROM.0>
-2.55888598,69.96244185,-145.60802922,157.60339130,51.09284253,-145.41436469
141.62142989,-158.35870645,-61.18859492,-61.54190337,-28.73632494,-61.41326028
-60.50081437,-55.37322289

>  <CHROM.1>
0.10124616,-99.65461329,-99.10917241,91.41839130,110.53247373,-177.92322407
17.55342406,27.51814394,66.25143337,-1.20368174,0.40769564,1.11808488

>  <FORMUL>
      TOL    C16 H14 F3 N1 O3 S1

>  <HET>
 TOL  A 320      24

>  <HETNAM>
     TOL TOLRESTAT

>  <Name>
TOL.pdb

>  <RI>
0

>  <Rbt.Current_Directory>
/home/malgorzata/Desktop/rDOCK_IFD/Wyniki/1_aldose_rductase

>  <Rbt.Executable>
rbdock ($Id: //depot/dev/client3/rdock/2013.1/src/exe/rbdock.cxx#4 $)

>  <Rbt.Library>
libRbt.so (2013.1, Build901 2013/11/27)

>  <Rbt.Parameter_File>
/home/malgorzata/Desktop/rDock_2013.1_src/data/scripts/soft_docking.prm

>  <Rbt.Receptor>
cavity.prm

>  <SCORE>
-51.0393

>  <SCORE.INTER>
-34.7358

>  <SCORE.INTER.CONST>
1

>  <SCORE.INTER.POLAR>
-3.0158

>  <SCORE.INTER.REPUL>
0.000527805

>  <SCORE.INTER.ROT>
5

>  <SCORE.INTER.VDW>
-34.8847

>  <SCORE.INTER.norm>
-1.44733

>  <SCORE.INTRA>
-6.77193

>  <SCORE.INTRA.DIHEDRAL>
4.68077

>  <SCORE.INTRA.DIHEDRAL.0>
16.9783

>  <SCORE.INTRA.POLAR>
0

>  <SCORE.INTRA.POLAR.0>
0

>  <SCORE.INTRA.REPUL>
0

>  <SCORE.INTRA.REPUL.0>
0

>  <SCORE.INTRA.VDW>
-7.70808

>  <SCORE.INTRA.VDW.0>
4.87734

>  <SCORE.INTRA.norm>
-0.282164

>  <SCORE.RESTR>
0

>  <SCORE.RESTR.CAVITY>
0

>  <SCORE.RESTR.norm>
0

>  <SCORE.SYSTEM>
-9.53153

>  <SCORE.SYSTEM.CONST>
0

>  <SCORE.SYSTEM.DIHEDRAL>
11.2921

>  <SCORE.SYSTEM.POLAR>
-4.00053

>  <SCORE.SYSTEM.REPUL>
1.16943

>  <SCORE.SYSTEM.VDW>
-7.42295

>  <SCORE.SYSTEM.norm>
-0.397147

>  <SCORE.heavy>
24

>  <SCORE.norm>
-2.12664

$$$$
TOL.pdb
  rDOCK(R)          3D
libRbt.so/2013.1/901 2013/11/27
 25 26  0  0  0  0  0  0  0  0999 V2000
   24.5255   28.0739   72.2389 C   0  0  0  0  0  0
   24.7477   26.7619   71.9744 F   0  0  0  0  0  0
   25.1698   28.3571   73.4020 F   0  0  0  0  0  0
   25.1190   28.8075   71.2599 F   0  0  0  0  0  0
   23.0162   28.3896   72.3199 C   0  0  0  0  0  0
   22.3795   28.9144   73.4746 C   0  0  0  0  0  0
   23.0915   29.1585   74.5599 O   0  0  0  0  0  0
   23.2541   28.0153   75.3832 C   0  0  0  0  0  0
   20.9900   29.1647   73.4454 C   0  0  0  0  0  0
   20.2387   28.9021   72.2942 C   0  0  0  0  0  0
   20.8667   28.3788   71.1468 C   0  0  0  0  0  0
   20.0959   28.1165   69.9901 C   0  0  0  0  0  0
   20.7228   27.5959   68.8461 C   0  0  0  0  0  0
   22.0953   27.3369   68.8480 C   0  0  0  0  0  0
   22.8544   27.5990   69.9954 C   0  0  0  0  0  0
   22.2507   28.1211   71.1543 C   0  0  0  0  0  0
   18.6089   28.3665   69.8998 C   0  0  0  0  0  0
   17.5177   27.0823   70.2106 S   0  0  0  0  0  0
   18.1636   29.5861   69.5940 N   0  0  0  0  0  0
   19.1095   30.6858   69.4396 C   0  0  0  0  0  0
   16.7403   29.8616   69.4255 C   0  0  0  0  0  0
   16.3390   29.8809   67.9406 C   0  0  0  0  0  0
   17.0978   30.2297   67.0749 O   0  0  0  0  0  0
   15.0912   29.4762   67.6784 O   0  0  0  0  0  0
   14.4848   29.3428   68.3801 H   0  0  0  0  0  0
  1  2  1  0  0  0
  1  3  1  0  0  0
  1  4  1  0  0  0
  1  5  1  0  0  0
  5  6  2  0  0  0
  5 16  1  0  0  0
  6  7  1  0  0  0
  6  9  1  0  0  0
  7  8  1  0  0  0
  9 10  2  0  0  0
 10 11  1  0  0  0
 11 12  2  0  0  0
 11 16  1  0  0  0
 12 13  1  0  0  0
 12 17  1  0  0  0
 13 14  2  0  0  0
 14 15  1  0  0  0
 15 16  2  0  0  0
 17 18  2  0  0  0
 17 19  1  0  0  0
 19 20  1  0  0  0
 19 21  1  0  0  0
 21 22  1  0  0  0
 22 23  2  0  0  0
 22 24  1  0  0  0
 24 25  1  0  0  0
M  END
>  <CHROM.0>
10.15528673,17.85707945,-75.46596351,151.70088863,-141.21678556,59.72546047
125.59865808,-161.94111567,-61.18859492,-61.54190337,-177.74947258,-61.41326028
-60.50081437,10.57397756

>  <CHROM.1>
119.87879856,-84.96513186,-95.13587676,-99.21518422,-30.99715467,10.12476362
20.77241995,28.54861459,70.90019334,-0.52119604,0.21865738,-1.69950925

>  <FORMUL>
      TOL    C16 H14 F3 N1 O3 S1

>  <HET>
 TOL  A 320      24

>  <HETNAM>
     TOL TOLRESTAT

>  <Name>
TOL.pdb

>  <RI>
0

>  <Rbt.Current_Directory>
/home/malgorzata/Desktop/rDOCK_IFD/Wyniki/1_aldose_rductase

>  <Rbt.Executable>
rbdock ($Id: //depot/dev/client3/rdock/2013.1/src/exe/rbdock.cxx#4 $)

>  <Rbt.Library>
libRbt.so (2013.1, Build901 2013/11/27)

>  <Rbt.Parameter_File>
/home/malgorzata/Desktop/rDock_2013.1_src/data/scripts/soft_docking.prm

>  <Rbt.Receptor>
cavity.prm

>  <SCORE>
-49.4549

>  <SCORE.INTER>
-33.506

>  <SCORE.INTER.CONST>
1

>  <SCORE.INTER.POLAR>
-3.25679

>  <SCORE.INTER.REPUL>
0.0483536

>  <SCORE.INTER.ROT>
5

>  <SCORE.INTER.VDW>
-33.0747

>  <SCORE.INTER.norm>
-1.39608

>  <SCORE.INTRA>
-5.3788

>  <SCORE.INTRA.DIHEDRAL>
5.57691

>  <SCORE.INTRA.DIHEDRAL.0>
16.9783

>  <SCORE.INTRA.POLAR>
0

>  <SCORE.INTRA.POLAR.0>
0

>  <SCORE.INTRA.REPUL>
0

>  <SCORE.INTRA.REPUL.0>
0

>  <SCORE.INTRA.VDW>
-6.49418

>  <SCORE.INTRA.VDW.0>
4.87734

>  <SCORE.INTRA.norm>
-0.224117

>  <SCORE.RESTR>
0.613664

>  <SCORE.RESTR.CAVITY>
0.122733

>  <SCORE.RESTR.norm>
0.0255693

>  <SCORE.SYSTEM>
-11.1838

>  <SCORE.SYSTEM.CONST>
0

>  <SCORE.SYSTEM.DIHEDRAL>
13.7

>  <SCORE.SYSTEM.POLAR>
-4.86913

>  <SCORE.SYSTEM.REPUL>
1.16943

>  <SCORE.SYSTEM.VDW>
-7.32594

>  <SCORE.SYSTEM.norm>
-0.465992

>  <SCORE.heavy>
24

>  <SCORE.norm>
-2.06062

$$$$
TOL.pdb
  rDOCK(R)          3D
libRbt.so/2013.1/901 2013/11/27
 25 26  0  0  0  0  0  0  0  0999 V2000
   15.8001   29.6322   65.9440 C   0  0  0  0  0  0
   15.7855   30.4430   64.8563 F   0  0  0  0  0  0
   14.7768   30.0289   66.7463 F   0  0  0  0  0  0
   15.5214   28.3673   65.5304 F   0  0  0  0  0  0
   17.1610   29.6822   66.6718 C   0  0  0  0  0  0
   18.3669   30.1178   66.0635 C   0  0  0  0  0  0
   18.3586   30.5101   64.8024 O   0  0  0  0  0  0
   18.8609   29.5257   63.9138 C   0  0  0  0  0  0
   19.5606   30.1214   66.8180 C   0  0  0  0  0  0
   19.5657   29.7024   68.1532 C   0  0  0  0  0  0
   18.3710   29.2669   68.7599 C   0  0  0  0  0  0
   18.3898   28.8445   70.1097 C   0  0  0  0  0  0
   17.1982   28.4116   70.7143 C   0  0  0  0  0  0
   16.0035   28.3957   69.9909 C   0  0  0  0  0  0
   15.9899   28.8156   68.6548 C   0  0  0  0  0  0
   17.1698   29.2545   68.0260 C   0  0  0  0  0  0
   19.6344   28.8293   70.9656 C   0  0  0  0  0  0
   20.1749   30.2834   71.6933 S   0  0  0  0  0  0
   20.2886   27.6825   71.1561 N   0  0  0  0  0  0
   19.7482   26.4407   70.6141 C   0  0  0  0  0  0
   21.5337   27.6284   71.9155 C   0  0  0  0  0  0
   22.7300   27.2705   71.0171 C   0  0  0  0  0  0
   23.5496   28.0856   70.6843 O   0  0  0  0  0  0
   22.7995   25.9895   70.6380 O   0  0  0  0  0  0
   23.1585   25.3479   71.2189 H   0  0  0  0  0  0
  1  2  1  0  0  0
  1  3  1  0  0  0
  1  4  1  0  0  0
  1  5  1  0  0  0
  5  6  2  0  0  0
  5 16  1  0  0  0
  6  7  1  0  0  0
  6  9  1  0  0  0
  7  8  1  0  0  0
  9 10  2  0  0  0
 10 11  1  0  0  0
 11 12  2  0  0  0
 11 16  1  0  0  0
 12 13  1  0  0  0
 12 17  1  0  0  0
 13 14  2  0  0  0
 14 15  1  0  0  0
 15 16  2  0  0  0
 17 18  2  0  0  0
 17 19  1  0  0  0
 19 20  1  0  0  0
 19 21  1  0  0  0
 21 22  1  0  0  0
 22 23  2  0  0  0
 22 24  1  0  0  0
 24 25  1  0  0  0
M  END
>  <CHROM.0>
3.75398834,-102.84046738,-60.50945124,143.11610772,-176.98081623,-164.53243426
149.15048448,-159.45973523,-61.18859492,-61.54190337,-74.76517021,-61.41326028
-60.50081437,-136.34701570

>  <CHROM.1>
-20.62472140,-101.78859966,80.72090250,-112.65125435,105.92547040,-81.23815479
18.66692737,28.94992229,68.56332798,2.30162601,0.13105061,-1.35469132

>  <FORMUL>
      TOL    C16 H14 F3 N1 O3 S1

>  <HET>
 TOL  A 320      24

>  <HETNAM>
     TOL TOLRESTAT

>  <Name>
TOL.pdb

>  <RI>
0

>  <Rbt.Current_Directory>
/home/malgorzata/Desktop/rDOCK_IFD/Wyniki/1_aldose_rductase

>  <Rbt.Executable>
rbdock ($Id: //depot/dev/client3/rdock/2013.1/src/exe/rbdock.cxx#4 $)

>  <Rbt.Library>
libRbt.so (2013.1, Build901 2013/11/27)

>  <Rbt.Parameter_File>
/home/malgorzata/Desktop/rDock_2013.1_src/data/scripts/soft_docking.prm

>  <Rbt.Receptor>
cavity.prm

>  <SCORE>
-42.2728

>  <SCORE.INTER>
-31.3239

>  <SCORE.INTER.CONST>
1

>  <SCORE.INTER.POLAR>
-2.05072

>  <SCORE.INTER.REPUL>
0

>  <SCORE.INTER.ROT>
5

>  <SCORE.INTER.VDW>
-34.7514

>  <SCORE.INTER.norm>
-1.30516

>  <SCORE.INTRA>
-0.821993

>  <SCORE.INTRA.DIHEDRAL>
27.1894

>  <SCORE.INTRA.DIHEDRAL.0>
16.9783

>  <SCORE.INTRA.POLAR>
0

>  <SCORE.INTRA.POLAR.0>
0

>  <SCORE.INTRA.REPUL>
0

>  <SCORE.INTRA.REPUL.0>
0

>  <SCORE.INTRA.VDW>
-6.25988

>  <SCORE.INTRA.VDW.0>
4.87734

>  <SCORE.INTRA.norm>
-0.0342497

>  <SCORE.RESTR>
0

>  <SCORE.RESTR.CAVITY>
0

>  <SCORE.RESTR.norm>
0

>  <SCORE.SYSTEM>
-10.1269

>  <SCORE.SYSTEM.CONST>
0

>  <SCORE.SYSTEM.DIHEDRAL>
11.151

>  <SCORE.SYSTEM.POLAR>
-3.97575

>  <SCORE.SYSTEM.REPUL>
1.16943

>  <SCORE.SYSTEM.VDW>
-8.03206

>  <SCORE.SYSTEM.norm>
-0.421956

>  <SCORE.heavy>
24

>  <SCORE.norm>
-1.76137

$$$$
TOL.pdb
  rDOCK(R)          3D
libRbt.so/2013.1/901 2013/11/27
 25 26  0  0  0  0  0  0  0  0999 V2000
   15.5211   30.3927   66.0073 C   0  0  0  0  0  0
   14.5963   29.4008   66.0501 F   0  0  0  0  0  0
   15.6555   30.7513   64.7029 F   0  0  0  0  0  0
   15.0176   31.4671   66.6713 F   0  0  0  0  0  0
   16.8627   29.9460   66.6274 C   0  0  0  0  0  0
   18.0878   29.9011   65.9123 C   0  0  0  0  0  0
   18.1159   30.2560   64.6405 O   0  0  0  0  0  0
   18.3597   29.1655   63.7674 C   0  0  0  0  0  0
   19.2598   29.4729   66.5736 C   0  0  0  0  0  0
   19.2252   29.0951   67.9206 C   0  0  0  0  0  0
   18.0105   29.1359   68.6332 C   0  0  0  0  0  0
   17.9886   28.7501   69.9939 C   0  0  0  0  0  0
   16.7775   28.7922   70.7040 C   0  0  0  0  0  0
   15.6027   29.2095   70.0743 C   0  0  0  0  0  0
   15.6296   29.5913   68.7271 C   0  0  0  0  0  0
   16.8300   29.5588   67.9933 C   0  0  0  0  0  0
   19.2096   28.2868   70.7531 C   0  0  0  0  0  0
   19.9361   29.3321   71.9001 S   0  0  0  0  0  0
   19.6981   27.0653   70.5321 N   0  0  0  0  0  0
   18.9987   26.1568   69.6303 C   0  0  0  0  0  0
   20.9154   26.5975   71.1874 C   0  0  0  0  0  0
   22.1575   26.8361   70.3119 C   0  0  0  0  0  0
   22.1776   27.6617   69.4373 O   0  0  0  0  0  0
   23.2151   26.0676   70.5953 O   0  0  0  0  0  0
   23.0901   25.2197   70.9739 H   0  0  0  0  0  0
  1  2  1  0  0  0
  1  3  1  0  0  0
  1  4  1  0  0  0
  1  5  1  0  0  0
  5  6  2  0  0  0
  5 16  1  0  0  0
  6  7  1  0  0  0
  6  9  1  0  0  0
  7  8  1  0  0  0
  9 10  2  0  0  0
 10 11  1  0  0  0
 11 12  2  0  0  0
 11 16  1  0  0  0
 12 13  1  0  0  0
 12 17  1  0  0  0
 13 14  2  0  0  0
 14 15  1  0  0  0
 15 16  2  0  0  0
 17 18  2  0  0  0
 17 19  1  0  0  0
 19 20  1  0  0  0
 19 21  1  0  0  0
 21 22  1  0  0  0
 22 23  2  0  0  0
 22 24  1  0  0  0
 24 25  1  0  0  0
M  END
>  <CHROM.0>
-176.54889043,56.90540405,-105.65797770,-175.76695246,-61.49667069,78.65408969
103.73493753,-70.95906470,-61.18859492,-61.54190337,-76.71369458,-61.41326028
-60.50081437,-14.19144996

>  <CHROM.1>
119.15291147,-111.24449752,105.86697692,-93.97133062,21.98311693,27.74852601
18.28253059,28.91637912,68.37445345,2.35686383,0.39369043,-1.41119635

>  <FORMUL>
      TOL    C16 H14 F3 N1 O3 S1

>  <HET>
 TOL  A 320      24

>  <HETNAM>
     TOL TOLRESTAT

>  <Name>
TOL.pdb

>  <RI>
0

>  <Rbt.Current_Directory>
/home/malgorzata/Desktop/rDOCK_IFD/Wyniki/1_aldose_rductase

>  <Rbt.Executable>
rbdock ($Id: //depot/dev/client3/rdock/2013.1/src/exe/rbdock.cxx#4 $)

>  <Rbt.Library>
libRbt.so (2013.1, Build901 2013/11/27)

>  <Rbt.Parameter_File>
/home/malgorzata/Desktop/rDock_2013.1_src/data/scripts/soft_docking.prm

>  <Rbt.Receptor>
cavity.prm

>  <SCORE>
-50.1531

>  <SCORE.INTER>
-38.3587

>  <SCORE.INTER.CONST>
1

>  <SCORE.INTER.POLAR>
-3.90133

>  <SCORE.INTER.REPUL>
0.249548

>  <SCORE.INTER.ROT>
5

>  <SCORE.INTER.VDW>
-36.7419

>  <SCORE.INTER.norm>
-1.59828

>  <SCORE.INTRA>
-5.39963

>  <SCORE.INTRA.DIHEDRAL>
8.43152

>  <SCORE.INTRA.DIHEDRAL.0>
16.9783

>  <SCORE.INTRA.POLAR>
0

>  <SCORE.INTRA.POLAR.0>
0

>  <SCORE.INTRA.REPUL>
0

>  <SCORE.INTRA.REPUL.0>
0

>  <SCORE.INTRA.VDW>
-7.08593

>  <SCORE.INTRA.VDW.0>
4.87734

>  <SCORE.INTRA.norm>
-0.224984

>  <SCORE.RESTR>
0.354187

>  <SCORE.RESTR.CAVITY>
0.0708373

>  <SCORE.RESTR.norm>
0.0147578

>  <SCORE.SYSTEM>
-6.74898

>  <SCORE.SYSTEM.CONST>
0

>  <SCORE.SYSTEM.DIHEDRAL>
4.84326

>  <SCORE.SYSTEM.POLAR>
-3.29719

>  <SCORE.SYSTEM.REPUL>
1.75935

>  <SCORE.SYSTEM.VDW>
-6.75688

>  <SCORE.SYSTEM.norm>
-0.281207

>  <SCORE.heavy>
24

>  <SCORE.norm>
-2.08971

$$$$
