TOL.pdb
  rDOCK(R)          3D
libRbt.so/2013.1/901 2013/11/27
 25 26  0  0  0  0  0  0  0  0999 V2000
   15.2815   28.9938   65.2474 C   0  0  0  0  0  0
   15.5015   30.3124   65.0158 F   0  0  0  0  0  0
   14.1151   28.9036   65.9399 F   0  0  0  0  0  0
   15.0873   28.3821   64.0487 F   0  0  0  0  0  0
   16.4592   28.3461   66.0075 C   0  0  0  0  0  0
   17.2433   27.2819   65.4911 C   0  0  0  0  0  0
   16.9761   26.7944   64.2931 O   0  0  0  0  0  0
   16.5498   25.4424   64.3288 C   0  0  0  0  0  0
   18.2977   26.7576   66.2706 C   0  0  0  0  0  0
   18.5758   27.2753   67.5407 C   0  0  0  0  0  0
   17.7980   28.3301   68.0578 C   0  0  0  0  0  0
   18.0884   28.8434   69.3435 C   0  0  0  0  0  0
   17.3134   29.8957   69.8579 C   0  0  0  0  0  0
   16.2631   30.4319   69.1094 C   0  0  0  0  0  0
   15.9799   29.9208   67.8366 C   0  0  0  0  0  0
   16.7416   28.8672   67.2980 C   0  0  0  0  0  0
   19.2039   28.3249   70.2203 C   0  0  0  0  0  0
   18.8782   27.0780   71.3497 S   0  0  0  0  0  0
   20.4307   28.8333   70.0946 N   0  0  0  0  0  0
   20.7048   29.8171   69.0530 C   0  0  0  0  0  0
   21.5250   28.4165   70.9656 C   0  0  0  0  0  0
   22.0376   27.0131   70.5993 C   0  0  0  0  0  0
   22.3735   26.7239   69.4810 O   0  0  0  0  0  0
   22.0907   26.1397   71.6111 O   0  0  0  0  0  0
   22.2787   25.2375   71.4418 H   0  0  0  0  0  0
  1  2  1  0  0  0
  1  3  1  0  0  0
  1  4  1  0  0  0
  1  5  1  0  0  0
  5  6  2  0  0  0
  5 16  1  0  0  0
  6  7  1  0  0  0
  6  9  1  0  0  0
  7  8  1  0  0  0
  9 10  2  0  0  0
 10 11  1  0  0  0
 11 12  2  0  0  0
 11 16  1  0  0  0
 12 13  1  0  0  0
 12 17  1  0  0  0
 13 14  2  0  0  0
 14 15  1  0  0  0
 15 16  2  0  0  0
 17 18  2  0  0  0
 17 19  1  0  0  0
 19 20  1  0  0  0
 19 21  1  0  0  0
 21 22  1  0  0  0
 22 23  2  0  0  0
 22 24  1  0  0  0
 24 25  1  0  0  0
M  END
>  <CHROM.0>
-10.34283511,74.23222049,166.90916988,172.74808184,-169.30940364,60.11237248
117.15661595,-173.75800987,-61.18859492,-61.54190337,-135.17258164,-61.41326028
-60.50081437,-132.50279416

>  <CHROM.1>
-118.80644086,-115.67035627,-91.82847213,74.46764945,52.98512180,171.55182270
18.04759937,28.14743320,67.94646164,2.60705729,0.64699989,-2.19951773

>  <FORMUL>
      TOL    C16 H14 F3 N1 O3 S1

>  <HET>
 TOL  A 320      24

>  <HETNAM>
     TOL TOLRESTAT

>  <Name>
TOL.pdb

>  <RI>
0

>  <Rbt.Current_Directory>
/home/malgorzata/Desktop/rDOCK_IFD/Wyniki/1_aldose_rductase

>  <Rbt.Executable>
rbdock ($Id: //depot/dev/client3/rdock/2013.1/src/exe/rbdock.cxx#4 $)

>  <Rbt.Library>
libRbt.so (2013.1, Build901 2013/11/27)

>  <Rbt.Parameter_File>
/home/malgorzata/Desktop/rDock_2013.1_src/data/scripts/soft_docking.prm

>  <Rbt.Receptor>
cavity.prm

>  <SCORE>
-43.7244

>  <SCORE.INTER>
-27.3516

>  <SCORE.INTER.CONST>
1

>  <SCORE.INTER.POLAR>
-2.77458

>  <SCORE.INTER.REPUL>
0

>  <SCORE.INTER.ROT>
5

>  <SCORE.INTER.VDW>
-28.318

>  <SCORE.INTER.norm>
-1.13965

>  <SCORE.INTRA>
-6.17316

>  <SCORE.INTRA.DIHEDRAL>
4.71039

>  <SCORE.INTRA.DIHEDRAL.0>
16.9783

>  <SCORE.INTRA.POLAR>
0

>  <SCORE.INTRA.POLAR.0>
0

>  <SCORE.INTRA.REPUL>
0

>  <SCORE.INTRA.REPUL.0>
0

>  <SCORE.INTRA.VDW>
-7.11524

>  <SCORE.INTRA.VDW.0>
4.87734

>  <SCORE.INTRA.norm>
-0.257215

>  <SCORE.RESTR>
1.23268

>  <SCORE.RESTR.CAVITY>
0.246536

>  <SCORE.RESTR.norm>
0.0513618

>  <SCORE.SYSTEM>
-11.4324

>  <SCORE.SYSTEM.CONST>
0

>  <SCORE.SYSTEM.DIHEDRAL>
9.50344

>  <SCORE.SYSTEM.POLAR>
-4.21618

>  <SCORE.SYSTEM.REPUL>
1.16943

>  <SCORE.SYSTEM.VDW>
-7.69626

>  <SCORE.SYSTEM.norm>
-0.47635

>  <SCORE.heavy>
24

>  <SCORE.norm>
-1.82185

$$$$
TOL.pdb
  rDOCK(R)          3D
libRbt.so/2013.1/901 2013/11/27
 25 26  0  0  0  0  0  0  0  0999 V2000
   23.1375   28.4906   73.3017 C   0  0  0  0  0  0
   24.4876   28.4830   73.1680 F   0  0  0  0  0  0
   22.8378   27.6550   74.3313 F   0  0  0  0  0  0
   22.7579   29.7420   73.6741 F   0  0  0  0  0  0
   22.4344   28.0728   71.9919 C   0  0  0  0  0  0
   22.8994   27.0363   71.1414 C   0  0  0  0  0  0
   23.9945   26.3705   71.4604 O   0  0  0  0  0  0
   23.7729   25.3872   72.4579 C   0  0  0  0  0  0
   22.1831   26.7351   69.9622 C   0  0  0  0  0  0
   21.0247   27.4449   69.6264 C   0  0  0  0  0  0
   20.5614   28.4762   70.4670 C   0  0  0  0  0  0
   19.3900   29.1870   70.1156 C   0  0  0  0  0  0
   18.9280   30.2143   70.9546 C   0  0  0  0  0  0
   19.6180   30.5347   72.1260 C   0  0  0  0  0  0
   20.7769   29.8275   72.4700 C   0  0  0  0  0  0
   21.2604   28.7936   71.6470 C   0  0  0  0  0  0
   18.5823   28.9075   68.8700 C   0  0  0  0  0  0
   19.1232   29.5129   67.3610 S   0  0  0  0  0  0
   17.4669   28.1812   68.9578 N   0  0  0  0  0  0
   17.0863   27.5882   70.2350 C   0  0  0  0  0  0
   16.6151   27.9431   67.7969 C   0  0  0  0  0  0
   15.7866   29.1883   67.4372 C   0  0  0  0  0  0
   16.0271   29.8622   66.4703 O   0  0  0  0  0  0
   14.7766   29.4652   68.2694 O   0  0  0  0  0  0
   14.1427   30.1149   68.0369 H   0  0  0  0  0  0
  1  2  1  0  0  0
  1  3  1  0  0  0
  1  4  1  0  0  0
  1  5  1  0  0  0
  5  6  2  0  0  0
  5 16  1  0  0  0
  6  7  1  0  0  0
  6  9  1  0  0  0
  7  8  1  0  0  0
  9 10  2  0  0  0
 10 11  1  0  0  0
 11 12  2  0  0  0
 11 16  1  0  0  0
 12 13  1  0  0  0
 12 17  1  0  0  0
 13 14  2  0  0  0
 14 15  1  0  0  0
 15 16  2  0  0  0
 17 18  2  0  0  0
 17 19  1  0  0  0
 19 20  1  0  0  0
 19 21  1  0  0  0
 21 22  1  0  0  0
 22 23  2  0  0  0
 22 24  1  0  0  0
 24 25  1  0  0  0
M  END
>  <CHROM.0>
-40.69481556,36.35853608,-79.77627761,141.15808794,49.29457035,-58.40711083
158.81124767,-129.37126973,-61.18859492,-61.54190337,-7.69087981,-61.41326028
-60.50081437,-38.96251350

>  <CHROM.1>
39.72340010,78.50824782,-79.02302798,-75.44378854,107.37452444,-169.48502181
20.24035483,28.50813833,70.52190088,0.38531020,-0.54922678,0.93124478

>  <FORMUL>
      TOL    C16 H14 F3 N1 O3 S1

>  <HET>
 TOL  A 320      24

>  <HETNAM>
     TOL TOLRESTAT

>  <Name>
TOL.pdb

>  <RI>
0

>  <Rbt.Current_Directory>
/home/malgorzata/Desktop/rDOCK_IFD/Wyniki/1_aldose_rductase

>  <Rbt.Executable>
rbdock ($Id: //depot/dev/client3/rdock/2013.1/src/exe/rbdock.cxx#4 $)

>  <Rbt.Library>
libRbt.so (2013.1, Build901 2013/11/27)

>  <Rbt.Parameter_File>
/home/malgorzata/Desktop/rDock_2013.1_src/data/scripts/soft_docking.prm

>  <Rbt.Receptor>
cavity.prm

>  <SCORE>
-50.9973

>  <SCORE.INTER>
-38.7393

>  <SCORE.INTER.CONST>
1

>  <SCORE.INTER.POLAR>
-3.08966

>  <SCORE.INTER.REPUL>
0

>  <SCORE.INTER.ROT>
5

>  <SCORE.INTER.VDW>
-38.6345

>  <SCORE.INTER.norm>
-1.61414

>  <SCORE.INTRA>
-2.15519

>  <SCORE.INTRA.DIHEDRAL>
5.15459

>  <SCORE.INTRA.DIHEDRAL.0>
16.9783

>  <SCORE.INTRA.POLAR>
0

>  <SCORE.INTRA.POLAR.0>
0

>  <SCORE.INTRA.REPUL>
0

>  <SCORE.INTRA.REPUL.0>
0

>  <SCORE.INTRA.VDW>
-3.18611

>  <SCORE.INTRA.VDW.0>
4.87734

>  <SCORE.INTRA.norm>
-0.0897996

>  <SCORE.RESTR>
0

>  <SCORE.RESTR.CAVITY>
0

>  <SCORE.RESTR.norm>
0

>  <SCORE.SYSTEM>
-10.1027

>  <SCORE.SYSTEM.CONST>
0

>  <SCORE.SYSTEM.DIHEDRAL>
15.0676

>  <SCORE.SYSTEM.POLAR>
-4.49994

>  <SCORE.SYSTEM.REPUL>
1.16943

>  <SCORE.SYSTEM.VDW>
-8.18391

>  <SCORE.SYSTEM.norm>
-0.420948

>  <SCORE.heavy>
24

>  <SCORE.norm>
-2.12489

$$$$
TOL.pdb
  rDOCK(R)          3D
libRbt.so/2013.1/901 2013/11/27
 25 26  0  0  0  0  0  0  0  0999 V2000
   23.1060   28.1356   73.5593 C   0  0  0  0  0  0
   22.2053   28.2223   74.5703 F   0  0  0  0  0  0
   23.6565   29.3700   73.4138 F   0  0  0  0  0  0
   24.0996   27.2943   73.9513 F   0  0  0  0  0  0
   22.4491   27.6357   72.2543 C   0  0  0  0  0  0
   22.7020   26.3631   71.6795 C   0  0  0  0  0  0
   23.5431   25.5340   72.2707 O   0  0  0  0  0  0
   24.8717   25.6589   71.7908 C   0  0  0  0  0  0
   22.0507   26.0042   70.4790 C   0  0  0  0  0  0
   21.1622   26.8867   69.8542 C   0  0  0  0  0  0
   20.9105   28.1519   70.4206 C   0  0  0  0  0  0
   20.0114   29.0352   69.7785 C   0  0  0  0  0  0
   19.7599   30.2959   70.3443 C   0  0  0  0  0  0
   20.3919   30.6778   71.5299 C   0  0  0  0  0  0
   21.2808   29.7994   72.1622 C   0  0  0  0  0  0
   21.5495   28.5304   71.6164 C   0  0  0  0  0  0
   19.2847   28.7051   68.4960 C   0  0  0  0  0  0
   20.1870   28.3575   67.0814 S   0  0  0  0  0  0
   17.9512   28.6738   68.4841 N   0  0  0  0  0  0
   17.2102   28.8679   69.7255 C   0  0  0  0  0  0
   17.2021   28.4297   67.2556 C   0  0  0  0  0  0
   16.6433   29.7352   66.6640 C   0  0  0  0  0  0
   15.7987   30.3837   67.2235 O   0  0  0  0  0  0
   17.1664   30.1025   65.4890 O   0  0  0  0  0  0
   17.9927   29.7558   65.2151 H   0  0  0  0  0  0
  1  2  1  0  0  0
  1  3  1  0  0  0
  1  4  1  0  0  0
  1  5  1  0  0  0
  5  6  2  0  0  0
  5 16  1  0  0  0
  6  7  1  0  0  0
  6  9  1  0  0  0
  7  8  1  0  0  0
  9 10  2  0  0  0
 10 11  1  0  0  0
 11 12  2  0  0  0
 11 16  1  0  0  0
 12 13  1  0  0  0
 12 17  1  0  0  0
 13 14  2  0  0  0
 14 15  1  0  0  0
 15 16  2  0  0  0
 17 18  2  0  0  0
 17 19  1  0  0  0
 19 20  1  0  0  0
 19 21  1  0  0  0
 21 22  1  0  0  0
 22 23  2  0  0  0
 22 24  1  0  0  0
 24 25  1  0  0  0
M  END
>  <CHROM.0>
159.93687211,54.17006325,-171.15764082,8.74962827,-52.45320608,-153.13343104
-23.26099007,-163.85636745,-61.18859492,-61.54190337,-12.96143009,-61.41326028
-60.50081437,-63.01668294

>  <CHROM.1>
-110.66491995,-92.29399989,-60.24855417,-101.18968138,-66.14900919,-19.74489324
20.67479994,28.36644391,70.34059968,0.44760829,-0.70301843,0.97216957

>  <FORMUL>
      TOL    C16 H14 F3 N1 O3 S1

>  <HET>
 TOL  A 320      24

>  <HETNAM>
     TOL TOLRESTAT

>  <Name>
TOL.pdb

>  <RI>
0

>  <Rbt.Current_Directory>
/home/malgorzata/Desktop/rDOCK_IFD/Wyniki/1_aldose_rductase

>  <Rbt.Executable>
rbdock ($Id: //depot/dev/client3/rdock/2013.1/src/exe/rbdock.cxx#4 $)

>  <Rbt.Library>
libRbt.so (2013.1, Build901 2013/11/27)

>  <Rbt.Parameter_File>
/home/malgorzata/Desktop/rDock_2013.1_src/data/scripts/soft_docking.prm

>  <Rbt.Receptor>
cavity.prm

>  <SCORE>
-34.0973

>  <SCORE.INTER>
-27.4449

>  <SCORE.INTER.CONST>
1

>  <SCORE.INTER.POLAR>
-1.13112

>  <SCORE.INTER.REPUL>
0.418144

>  <SCORE.INTER.ROT>
5

>  <SCORE.INTER.VDW>
-36.0898

>  <SCORE.INTER.norm>
-1.14354

>  <SCORE.INTRA>
-4.51552

>  <SCORE.INTRA.DIHEDRAL>
4.61997

>  <SCORE.INTRA.DIHEDRAL.0>
16.9783

>  <SCORE.INTRA.POLAR>
0

>  <SCORE.INTRA.POLAR.0>
0

>  <SCORE.INTRA.REPUL>
0

>  <SCORE.INTRA.REPUL.0>
0

>  <SCORE.INTRA.VDW>
-5.43952

>  <SCORE.INTRA.VDW.0>
4.87734

>  <SCORE.INTRA.norm>
-0.188147

>  <SCORE.RESTR>
0.213571

>  <SCORE.RESTR.CAVITY>
0.0427142

>  <SCORE.RESTR.norm>
0.00889879

>  <SCORE.SYSTEM>
-2.35042

>  <SCORE.SYSTEM.CONST>
0

>  <SCORE.SYSTEM.DIHEDRAL>
12.3257

>  <SCORE.SYSTEM.POLAR>
-2.72168

>  <SCORE.SYSTEM.REPUL>
1.16943

>  <SCORE.SYSTEM.VDW>
-5.1067

>  <SCORE.SYSTEM.norm>
-0.0979342

>  <SCORE.heavy>
24

>  <SCORE.norm>
-1.42072

$$$$
TOL.pdb
  rDOCK(R)          3D
libRbt.so/2013.1/901 2013/11/27
 25 26  0  0  0  0  0  0  0  0999 V2000
   18.8313   29.9715   70.0387 C   0  0  0  0  0  0
   17.6862   29.4353   70.5308 F   0  0  0  0  0  0
   18.7301   31.3195   70.1831 F   0  0  0  0  0  0
   19.8616   29.5579   70.8237 F   0  0  0  0  0  0
   19.0649   29.5613   68.5686 C   0  0  0  0  0  0
   20.2957   29.0553   68.0754 C   0  0  0  0  0  0
   21.3208   28.9147   68.8962 O   0  0  0  0  0  0
   21.3498   27.6478   69.5327 C   0  0  0  0  0  0
   20.4056   28.7126   66.7098 C   0  0  0  0  0  0
   19.3178   28.8657   65.8428 C   0  0  0  0  0  0
   18.0951   29.3700   66.3282 C   0  0  0  0  0  0
   17.0036   29.5213   65.4413 C   0  0  0  0  0  0
   15.7846   30.0229   65.9260 C   0  0  0  0  0  0
   15.6485   30.3719   67.2716 C   0  0  0  0  0  0
   16.7319   30.2196   68.1460 C   0  0  0  0  0  0
   17.9637   29.7186   67.6857 C   0  0  0  0  0  0
   17.0617   29.1692   63.9734 C   0  0  0  0  0  0
   17.4460   30.3856   62.8293 S   0  0  0  0  0  0
   16.8279   27.9139   63.5876 N   0  0  0  0  0  0
   16.6088   26.8763   64.5892 C   0  0  0  0  0  0
   16.8027   27.5385   62.1775 C   0  0  0  0  0  0
   15.7433   26.4588   61.8976 C   0  0  0  0  0  0
   15.9770   25.4890   61.2253 O   0  0  0  0  0  0
   14.5476   26.6692   62.4592 O   0  0  0  0  0  0
   13.8699   26.0281   62.3722 H   0  0  0  0  0  0
  1  2  1  0  0  0
  1  3  1  0  0  0
  1  4  1  0  0  0
  1  5  1  0  0  0
  5  6  2  0  0  0
  5 16  1  0  0  0
  6  7  1  0  0  0
  6  9  1  0  0  0
  7  8  1  0  0  0
  9 10  2  0  0  0
 10 11  1  0  0  0
 11 12  2  0  0  0
 11 16  1  0  0  0
 12 13  1  0  0  0
 12 17  1  0  0  0
 13 14  2  0  0  0
 14 15  1  0  0  0
 15 16  2  0  0  0
 17 18  2  0  0  0
 17 19  1  0  0  0
 19 20  1  0  0  0
 19 21  1  0  0  0
 21 22  1  0  0  0
 22 23  2  0  0  0
 22 24  1  0  0  0
 24 25  1  0  0  0
M  END
>  <CHROM.0>
-64.00904128,35.53062801,142.72326673,-176.33559107,-63.60972157,-75.16626663
162.53298328,-175.07265007,-61.18859492,-61.54190337,-85.37307883,-61.41326028
-60.50081437,127.67660768

>  <CHROM.1>
-131.53615161,89.08605971,-93.84994279,-144.04428337,-134.13345858,-176.45658959
17.87780665,28.92455016,66.30374278,1.08583215,-0.52689378,1.02837835

>  <FORMUL>
      TOL    C16 H14 F3 N1 O3 S1

>  <HET>
 TOL  A 320      24

>  <HETNAM>
     TOL TOLRESTAT

>  <Name>
TOL.pdb

>  <RI>
0

>  <Rbt.Current_Directory>
/home/malgorzata/Desktop/rDOCK_IFD/Wyniki/1_aldose_rductase

>  <Rbt.Executable>
rbdock ($Id: //depot/dev/client3/rdock/2013.1/src/exe/rbdock.cxx#4 $)

>  <Rbt.Library>
libRbt.so (2013.1, Build901 2013/11/27)

>  <Rbt.Parameter_File>
/home/malgorzata/Desktop/rDock_2013.1_src/data/scripts/soft_docking.prm

>  <Rbt.Receptor>
cavity.prm

>  <SCORE>
-42.9163

>  <SCORE.INTER>
-30.0818

>  <SCORE.INTER.CONST>
1

>  <SCORE.INTER.POLAR>
-0.815909

>  <SCORE.INTER.REPUL>
0.0289048

>  <SCORE.INTER.ROT>
5

>  <SCORE.INTER.VDW>
-37.8522

>  <SCORE.INTER.norm>
-1.25341

>  <SCORE.INTRA>
-3.6498

>  <SCORE.INTRA.DIHEDRAL>
5.14874

>  <SCORE.INTRA.DIHEDRAL.0>
16.9783

>  <SCORE.INTRA.POLAR>
0

>  <SCORE.INTRA.POLAR.0>
0

>  <SCORE.INTRA.REPUL>
0

>  <SCORE.INTRA.REPUL.0>
0

>  <SCORE.INTRA.VDW>
-4.67955

>  <SCORE.INTRA.VDW.0>
4.87734

>  <SCORE.INTRA.norm>
-0.152075

>  <SCORE.RESTR>
0

>  <SCORE.RESTR.CAVITY>
0

>  <SCORE.RESTR.norm>
0

>  <SCORE.SYSTEM>
-9.18475

>  <SCORE.SYSTEM.CONST>
0

>  <SCORE.SYSTEM.DIHEDRAL>
11.9549

>  <SCORE.SYSTEM.POLAR>
-3.84121

>  <SCORE.SYSTEM.REPUL>
1.16943

>  <SCORE.SYSTEM.VDW>
-7.94924

>  <SCORE.SYSTEM.norm>
-0.382698

>  <SCORE.heavy>
24

>  <SCORE.norm>
-1.78818

$$$$
TOL.pdb
  rDOCK(R)          3D
libRbt.so/2013.1/901 2013/11/27
 25 26  0  0  0  0  0  0  0  0999 V2000
   22.6460   28.7166   73.5568 C   0  0  0  0  0  0
   23.5081   27.8151   74.0906 F   0  0  0  0  0  0
   21.5705   28.7739   74.3863 F   0  0  0  0  0  0
   23.2428   29.9380   73.5848 F   0  0  0  0  0  0
   22.2467   28.3360   72.1146 C   0  0  0  0  0  0
   22.9326   27.3696   71.3337 C   0  0  0  0  0  0
   23.9774   26.7409   71.8410 O   0  0  0  0  0  0
   23.7705   25.3445   71.9763 C   0  0  0  0  0  0
   22.4873   27.0976   70.0214 C   0  0  0  0  0  0
   21.3814   27.7679   69.4866 C   0  0  0  0  0  0
   20.6995   28.7297   70.2579 C   0  0  0  0  0  0
   19.5839   29.4014   69.7051 C   0  0  0  0  0  0
   18.9038   30.3592   70.4750 C   0  0  0  0  0  0
   19.3239   30.6495   71.7750 C   0  0  0  0  0  0
   20.4285   29.9814   72.3181 C   0  0  0  0  0  0
   21.1268   29.0170   71.5681 C   0  0  0  0  0  0
   19.0614   29.1501   68.3103 C   0  0  0  0  0  0
   19.9085   29.7892   66.9649 S   0  0  0  0  0  0
   17.9563   28.4222   68.1423 N   0  0  0  0  0  0
   17.3151   27.8007   69.2957 C   0  0  0  0  0  0
   17.3724   28.2105   66.8216 C   0  0  0  0  0  0
   16.6664   29.4758   66.3049 C   0  0  0  0  0  0
   16.0359   30.2003   67.0290 O   0  0  0  0  0  0
   16.8085   29.7182   64.9970 O   0  0  0  0  0  0
   16.5701   30.5540   64.6469 H   0  0  0  0  0  0
  1  2  1  0  0  0
  1  3  1  0  0  0
  1  4  1  0  0  0
  1  5  1  0  0  0
  5  6  2  0  0  0
  5 16  1  0  0  0
  6  7  1  0  0  0
  6  9  1  0  0  0
  7  8  1  0  0  0
  9 10  2  0  0  0
 10 11  1  0  0  0
 11 12  2  0  0  0
 11 16  1  0  0  0
 12 13  1  0  0  0
 12 17  1  0  0  0
 13 14  2  0  0  0
 14 15  1  0  0  0
 15 16  2  0  0  0
 17 18  2  0  0  0
 17 19  1  0  0  0
 19 20  1  0  0  0
 19 21  1  0  0  0
 21 22  1  0  0  0
 22 23  2  0  0  0
 22 24  1  0  0  0
 24 25  1  0  0  0
M  END
>  <CHROM.0>
-175.76981833,-65.96014037,-78.83850084,103.66902178,-60.69804151,-57.56742300
144.99015617,-85.14240421,-61.18859492,-61.54190337,-27.43776558,-61.41326028
-60.50081437,61.82403901

>  <CHROM.1>
-14.44717312,116.30171919,-75.70760947,-73.90473217,-38.06153150,-166.75702530
20.40344938,28.74744249,70.18960987,0.62035572,-0.63913368,1.09604712

>  <FORMUL>
      TOL    C16 H14 F3 N1 O3 S1

>  <HET>
 TOL  A 320      24

>  <HETNAM>
     TOL TOLRESTAT

>  <Name>
TOL.pdb

>  <RI>
0

>  <Rbt.Current_Directory>
/home/malgorzata/Desktop/rDOCK_IFD/Wyniki/1_aldose_rductase

>  <Rbt.Executable>
rbdock ($Id: //depot/dev/client3/rdock/2013.1/src/exe/rbdock.cxx#4 $)

>  <Rbt.Library>
libRbt.so (2013.1, Build901 2013/11/27)

>  <Rbt.Parameter_File>
/home/malgorzata/Desktop/rDock_2013.1_src/data/scripts/soft_docking.prm

>  <Rbt.Receptor>
cavity.prm

>  <SCORE>
-39.0457

>  <SCORE.INTER>
-29.7726

>  <SCORE.INTER.CONST>
1

>  <SCORE.INTER.POLAR>
-0.721312

>  <SCORE.INTER.REPUL>
0.127621

>  <SCORE.INTER.ROT>
5

>  <SCORE.INTER.VDW>
-38.3582

>  <SCORE.INTER.norm>
-1.24052

>  <SCORE.INTRA>
-5.67297

>  <SCORE.INTRA.DIHEDRAL>
4.55491

>  <SCORE.INTRA.DIHEDRAL.0>
16.9783

>  <SCORE.INTRA.POLAR>
0

>  <SCORE.INTRA.POLAR.0>
0

>  <SCORE.INTRA.REPUL>
0

>  <SCORE.INTRA.REPUL.0>
0

>  <SCORE.INTRA.VDW>
-6.58395

>  <SCORE.INTRA.VDW.0>
4.87734

>  <SCORE.INTRA.norm>
-0.236374

>  <SCORE.RESTR>
0.250168

>  <SCORE.RESTR.CAVITY>
0.0500336

>  <SCORE.RESTR.norm>
0.0104237

>  <SCORE.SYSTEM>
-3.85031

>  <SCORE.SYSTEM.CONST>
0

>  <SCORE.SYSTEM.DIHEDRAL>
10.3451

>  <SCORE.SYSTEM.POLAR>
-3.28607

>  <SCORE.SYSTEM.REPUL>
1.76961

>  <SCORE.SYSTEM.VDW>
-6.69828

>  <SCORE.SYSTEM.norm>
-0.16043

>  <SCORE.heavy>
24

>  <SCORE.norm>
-1.6269

$$$$
TOL.pdb
  rDOCK(R)          3D
libRbt.so/2013.1/901 2013/11/27
 25 26  0  0  0  0  0  0  0  0999 V2000
   15.2884   30.3307   65.4918 C   0  0  0  0  0  0
   14.6220   31.4354   65.9115 F   0  0  0  0  0  0
   14.5106   29.2592   65.8001 F   0  0  0  0  0  0
   15.3820   30.3846   64.1364 F   0  0  0  0  0  0
   16.6896   30.2343   66.1334 C   0  0  0  0  0  0
   17.8982   30.1985   65.3904 C   0  0  0  0  0  0
   17.8565   30.2491   64.0713 O   0  0  0  0  0  0
   18.6315   29.2344   63.4542 C   0  0  0  0  0  0
   19.1294   30.1056   66.0757 C   0  0  0  0  0  0
   19.1690   30.0494   67.4735 C   0  0  0  0  0  0
   17.9712   30.0821   68.2144 C   0  0  0  0  0  0
   18.0248   30.0232   69.6268 C   0  0  0  0  0  0
   16.8304   30.0571   70.3649 C   0  0  0  0  0  0
   15.5984   30.1466   69.7128 C   0  0  0  0  0  0
   15.5506   30.2054   68.3144 C   0  0  0  0  0  0
   16.7327   30.1738   67.5515 C   0  0  0  0  0  0
   19.3109   29.9261   70.4130 C   0  0  0  0  0  0
   19.8272   31.2623   71.3533 S   0  0  0  0  0  0
   20.0207   28.7972   70.3774 N   0  0  0  0  0  0
   19.5052   27.6389   69.6561 C   0  0  0  0  0  0
   21.3041   28.6780   71.0621 C   0  0  0  0  0  0
   22.3233   27.8895   70.2218 C   0  0  0  0  0  0
   22.9548   28.3992   69.3341 O   0  0  0  0  0  0
   22.4636   26.6007   70.5515 O   0  0  0  0  0  0
   22.9371   26.0216   69.9871 H   0  0  0  0  0  0
  1  2  1  0  0  0
  1  3  1  0  0  0
  1  4  1  0  0  0
  1  5  1  0  0  0
  5  6  2  0  0  0
  5 16  1  0  0  0
  6  7  1  0  0  0
  6  9  1  0  0  0
  7  8  1  0  0  0
  9 10  2  0  0  0
 10 11  1  0  0  0
 11 12  2  0  0  0
 11 16  1  0  0  0
 12 13  1  0  0  0
 12 17  1  0  0  0
 13 14  2  0  0  0
 14 15  1  0  0  0
 15 16  2  0  0  0
 17 18  2  0  0  0
 17 19  1  0  0  0
 19 20  1  0  0  0
 19 21  1  0  0  0
 21 22  1  0  0  0
 22 23  2  0  0  0
 22 24  1  0  0  0
 24 25  1  0  0  0
M  END
>  <CHROM.0>
68.87774431,82.41136483,-134.83647244,166.64366630,-45.46932178,167.64753868
147.09204026,130.67545052,-61.18859492,-61.54190337,-82.65360948,-61.41326028
-60.50081437,-76.90510304

>  <CHROM.1>
-120.83471200,-130.36510307,110.51710773,-140.15238406,81.53826074,168.30149048
18.26008402,29.69826587,68.00149541,2.42441835,0.39049668,-1.69483099

>  <FORMUL>
      TOL    C16 H14 F3 N1 O3 S1

>  <HET>
 TOL  A 320      24

>  <HETNAM>
     TOL TOLRESTAT

>  <Name>
TOL.pdb

>  <RI>
0

>  <Rbt.Current_Directory>
/home/malgorzata/Desktop/rDOCK_IFD/Wyniki/1_aldose_rductase

>  <Rbt.Executable>
rbdock ($Id: //depot/dev/client3/rdock/2013.1/src/exe/rbdock.cxx#4 $)

>  <Rbt.Library>
libRbt.so (2013.1, Build901 2013/11/27)

>  <Rbt.Parameter_File>
/home/malgorzata/Desktop/rDock_2013.1_src/data/scripts/soft_docking.prm

>  <Rbt.Receptor>
cavity.prm

>  <SCORE>
-39.6156

>  <SCORE.INTER>
-29.0757

>  <SCORE.INTER.CONST>
1

>  <SCORE.INTER.POLAR>
-1.73117

>  <SCORE.INTER.REPUL>
0

>  <SCORE.INTER.ROT>
5

>  <SCORE.INTER.VDW>
-33.5897

>  <SCORE.INTER.norm>
-1.21149

>  <SCORE.INTRA>
-3.42036

>  <SCORE.INTRA.DIHEDRAL>
2.56799

>  <SCORE.INTRA.DIHEDRAL.0>
16.9783

>  <SCORE.INTRA.POLAR>
0

>  <SCORE.INTRA.POLAR.0>
0

>  <SCORE.INTRA.REPUL>
0

>  <SCORE.INTRA.REPUL.0>
0

>  <SCORE.INTRA.VDW>
-3.93396

>  <SCORE.INTRA.VDW.0>
4.87734

>  <SCORE.INTRA.norm>
-0.142515

>  <SCORE.RESTR>
0

>  <SCORE.RESTR.CAVITY>
0

>  <SCORE.RESTR.norm>
0

>  <SCORE.SYSTEM>
-7.11949

>  <SCORE.SYSTEM.CONST>
0

>  <SCORE.SYSTEM.DIHEDRAL>
12.1951

>  <SCORE.SYSTEM.POLAR>
-3.34156

>  <SCORE.SYSTEM.REPUL>
1.17754

>  <SCORE.SYSTEM.VDW>
-7.74344

>  <SCORE.SYSTEM.norm>
-0.296646

>  <SCORE.heavy>
24

>  <SCORE.norm>
-1.65065

$$$$
TOL.pdb
  rDOCK(R)          3D
libRbt.so/2013.1/901 2013/11/27
 25 26  0  0  0  0  0  0  0  0999 V2000
   23.7022   28.7786   72.9078 C   0  0  0  0  0  0
   23.5630   30.1270   72.9647 F   0  0  0  0  0  0
   25.0339   28.5226   72.8125 F   0  0  0  0  0  0
   23.2754   28.2608   74.0904 F   0  0  0  0  0  0
   22.9094   28.1747   71.7284 C   0  0  0  0  0  0
   23.3075   27.0095   71.0229 C   0  0  0  0  0  0
   24.4159   26.3811   71.3708 O   0  0  0  0  0  0
   24.2636   25.6002   72.5446 C   0  0  0  0  0  0
   22.5113   26.5413   69.9547 C   0  0  0  0  0  0
   21.3389   27.2116   69.5875 C   0  0  0  0  0  0
   20.9418   28.3702   70.2839 C   0  0  0  0  0  0
   19.7555   29.0393   69.9019 C   0  0  0  0  0  0
   19.3595   30.1935   70.5974 C   0  0  0  0  0  0
   20.1292   30.6799   71.6566 C   0  0  0  0  0  0
   21.3025   30.0135   72.0314 C   0  0  0  0  0  0
   21.7210   28.8547   71.3514 C   0  0  0  0  0  0
   18.8638   28.5839   68.7709 C   0  0  0  0  0  0
   19.5194   28.4128   67.1970 S   0  0  0  0  0  0
   17.5817   28.3068   69.0138 N   0  0  0  0  0  0
   17.0753   28.3574   70.3808 C   0  0  0  0  0  0
   16.6634   27.9317   67.9433 C   0  0  0  0  0  0
   16.4144   29.1008   66.9750 C   0  0  0  0  0  0
   16.7584   29.0647   65.8229 O   0  0  0  0  0  0
   15.7827   30.1563   67.5007 O   0  0  0  0  0  0
   15.2991   30.0635   68.2979 H   0  0  0  0  0  0
  1  2  1  0  0  0
  1  3  1  0  0  0
  1  4  1  0  0  0
  1  5  1  0  0  0
  5  6  2  0  0  0
  5 16  1  0  0  0
  6  7  1  0  0  0
  6  9  1  0  0  0
  7  8  1  0  0  0
  9 10  2  0  0  0
 10 11  1  0  0  0
 11 12  2  0  0  0
 11 16  1  0  0  0
 12 13  1  0  0  0
 12 17  1  0  0  0
 13 14  2  0  0  0
 14 15  1  0  0  0
 15 16  2  0  0  0
 17 18  2  0  0  0
 17 19  1  0  0  0
 19 20  1  0  0  0
 19 21  1  0  0  0
 21 22  1  0  0  0
 22 23  2  0  0  0
 22 24  1  0  0  0
 24 25  1  0  0  0
M  END
>  <CHROM.0>
81.55888630,43.92321613,142.33599073,155.35582002,-73.31968571,-54.11456021
127.33617538,88.41722489,-61.18859492,-61.54190337,171.35543966,-61.41326028
-60.50081437,-89.21360572

>  <CHROM.1>
148.81112724,76.81622832,-57.14898151,-66.93868233,115.11601380,-18.60483626
20.69418845,28.49324214,70.27280516,0.37309536,-0.54233768,0.84201590

>  <FORMUL>
      TOL    C16 H14 F3 N1 O3 S1

>  <HET>
 TOL  A 320      24

>  <HETNAM>
     TOL TOLRESTAT

>  <Name>
TOL.pdb

>  <RI>
0

>  <Rbt.Current_Directory>
/home/malgorzata/Desktop/rDOCK_IFD/Wyniki/1_aldose_rductase

>  <Rbt.Executable>
rbdock ($Id: //depot/dev/client3/rdock/2013.1/src/exe/rbdock.cxx#4 $)

>  <Rbt.Library>
libRbt.so (2013.1, Build901 2013/11/27)

>  <Rbt.Parameter_File>
/home/malgorzata/Desktop/rDock_2013.1_src/data/scripts/soft_docking.prm

>  <Rbt.Receptor>
cavity.prm

>  <SCORE>
-47.6958

>  <SCORE.INTER>
-34.6261

>  <SCORE.INTER.CONST>
1

>  <SCORE.INTER.POLAR>
-1.58702

>  <SCORE.INTER.REPUL>
0.0157589

>  <SCORE.INTER.ROT>
5

>  <SCORE.INTER.VDW>
-39.709

>  <SCORE.INTER.norm>
-1.44275

>  <SCORE.INTRA>
-3.29061

>  <SCORE.INTRA.DIHEDRAL>
3.50597

>  <SCORE.INTRA.DIHEDRAL.0>
16.9783

>  <SCORE.INTRA.POLAR>
0

>  <SCORE.INTRA.POLAR.0>
0

>  <SCORE.INTRA.REPUL>
0

>  <SCORE.INTRA.REPUL.0>
0

>  <SCORE.INTRA.VDW>
-3.9918

>  <SCORE.INTRA.VDW.0>
4.87734

>  <SCORE.INTRA.norm>
-0.137109

>  <SCORE.RESTR>
0

>  <SCORE.RESTR.CAVITY>
0

>  <SCORE.RESTR.norm>
0

>  <SCORE.SYSTEM>
-9.77912

>  <SCORE.SYSTEM.CONST>
0

>  <SCORE.SYSTEM.DIHEDRAL>
9.6179

>  <SCORE.SYSTEM.POLAR>
-4.12023

>  <SCORE.SYSTEM.REPUL>
1.22818

>  <SCORE.SYSTEM.VDW>
-6.72016

>  <SCORE.SYSTEM.norm>
-0.407463

>  <SCORE.heavy>
24

>  <SCORE.norm>
-1.98733

$$$$
TOL.pdb
  rDOCK(R)          3D
libRbt.so/2013.1/901 2013/11/27
 25 26  0  0  0  0  0  0  0  0999 V2000
   22.3130   28.5652   73.0660 C   0  0  0  0  0  0
   22.8835   29.7938   73.1435 F   0  0  0  0  0  0
   23.1456   27.7021   73.7063 F   0  0  0  0  0  0
   21.1481   28.5966   73.7666 F   0  0  0  0  0  0
   22.0593   28.1478   71.6012 C   0  0  0  0  0  0
   22.8483   27.1974   70.9024 C   0  0  0  0  0  0
   23.8663   26.6177   71.5123 O   0  0  0  0  0  0
   24.1151   25.3025   71.0441 C   0  0  0  0  0  0
   22.5331   26.8887   69.5609 C   0  0  0  0  0  0
   21.4552   27.5073   68.9175 C   0  0  0  0  0  0
   20.6712   28.4531   69.6072 C   0  0  0  0  0  0
   19.5853   29.0723   68.9451 C   0  0  0  0  0  0
   18.8033   30.0142   69.6336 C   0  0  0  0  0  0
   19.0938   30.3400   70.9603 C   0  0  0  0  0  0
   20.1696   29.7237   71.6118 C   0  0  0  0  0  0
   20.9681   28.7763   70.9448 C   0  0  0  0  0  0
   19.1998   28.7800   67.5140 C   0  0  0  0  0  0
   20.3783   28.9202   66.2781 S   0  0  0  0  0  0
   17.9518   28.4027   67.2322 N   0  0  0  0  0  0
   16.9974   28.1876   68.3142 C   0  0  0  0  0  0
   17.5117   28.1775   65.8591 C   0  0  0  0  0  0
   16.9702   29.4672   65.2190 C   0  0  0  0  0  0
   17.5250   30.0099   64.3000 O   0  0  0  0  0  0
   15.8366   29.9389   65.7501 O   0  0  0  0  0  0
   15.2516   29.3589   66.1965 H   0  0  0  0  0  0
  1  2  1  0  0  0
  1  3  1  0  0  0
  1  4  1  0  0  0
  1  5  1  0  0  0
  5  6  2  0  0  0
  5 16  1  0  0  0
  6  7  1  0  0  0
  6  9  1  0  0  0
  7  8  1  0  0  0
  9 10  2  0  0  0
 10 11  1  0  0  0
 11 12  2  0  0  0
 11 16  1  0  0  0
 12 13  1  0  0  0
 12 17  1  0  0  0
 13 14  2  0  0  0
 14 15  1  0  0  0
 15 16  2  0  0  0
 17 18  2  0  0  0
 17 19  1  0  0  0
 19 20  1  0  0  0
 19 21  1  0  0  0
 21 22  1  0  0  0
 22 23  2  0  0  0
 22 24  1  0  0  0
 24 25  1  0  0  0
M  END
>  <CHROM.0>
-4.87044902,-69.09319287,-31.30066121,108.12245968,-45.80405467,-65.36652639
176.52198517,-165.20172923,-61.18859492,-61.54190337,-42.18787114,-61.41326028
-60.50081437,-135.08767580

>  <CHROM.1>
104.68942646,149.33258599,-53.84116522,-89.05305315,113.51082796,-24.53356979
20.37683874,28.54256186,69.49491764,0.75259726,-0.57401258,1.25490909

>  <FORMUL>
      TOL    C16 H14 F3 N1 O3 S1

>  <HET>
 TOL  A 320      24

>  <HETNAM>
     TOL TOLRESTAT

>  <Name>
TOL.pdb

>  <RI>
0

>  <Rbt.Current_Directory>
/home/malgorzata/Desktop/rDOCK_IFD/Wyniki/1_aldose_rductase

>  <Rbt.Executable>
rbdock ($Id: //depot/dev/client3/rdock/2013.1/src/exe/rbdock.cxx#4 $)

>  <Rbt.Library>
libRbt.so (2013.1, Build901 2013/11/27)

>  <Rbt.Parameter_File>
/home/malgorzata/Desktop/rDock_2013.1_src/data/scripts/soft_docking.prm

>  <Rbt.Receptor>
cavity.prm

>  <SCORE>
-41.4172

>  <SCORE.INTER>
-33.0715

>  <SCORE.INTER.CONST>
1

>  <SCORE.INTER.POLAR>
-0.870732

>  <SCORE.INTER.REPUL>
0.0166297

>  <SCORE.INTER.ROT>
5

>  <SCORE.INTER.VDW>
-40.5942

>  <SCORE.INTER.norm>
-1.37798

>  <SCORE.INTRA>
-0.325644

>  <SCORE.INTRA.DIHEDRAL>
1.14979

>  <SCORE.INTRA.DIHEDRAL.0>
16.9783

>  <SCORE.INTRA.POLAR>
0

>  <SCORE.INTRA.POLAR.0>
0

>  <SCORE.INTRA.REPUL>
0

>  <SCORE.INTRA.REPUL.0>
0

>  <SCORE.INTRA.VDW>
-0.555603

>  <SCORE.INTRA.VDW.0>
4.87734

>  <SCORE.INTRA.norm>
-0.0135685

>  <SCORE.RESTR>
0.142751

>  <SCORE.RESTR.CAVITY>
0.0285501

>  <SCORE.RESTR.norm>
0.00594794

>  <SCORE.SYSTEM>
-8.16277

>  <SCORE.SYSTEM.CONST>
0

>  <SCORE.SYSTEM.DIHEDRAL>
8.74984

>  <SCORE.SYSTEM.POLAR>
-3.38737

>  <SCORE.SYSTEM.REPUL>
1.16943

>  <SCORE.SYSTEM.VDW>
-6.8678

>  <SCORE.SYSTEM.norm>
-0.340115

>  <SCORE.heavy>
24

>  <SCORE.norm>
-1.72572

$$$$
TOL.pdb
  rDOCK(R)          3D
libRbt.so/2013.1/901 2013/11/27
 25 26  0  0  0  0  0  0  0  0999 V2000
   23.4637   27.6340   74.8008 C   0  0  0  0  0  0
   24.0885   26.5980   75.4149 F   0  0  0  0  0  0
   22.6343   28.1959   75.7197 F   0  0  0  0  0  0
   24.4033   28.5641   74.4832 F   0  0  0  0  0  0
   22.7034   27.1716   73.5389 C   0  0  0  0  0  0
   22.9046   25.9148   72.9112 C   0  0  0  0  0  0
   23.7865   25.0681   73.4109 O   0  0  0  0  0  0
   23.1933   24.0634   74.2168 C   0  0  0  0  0  0
   22.1588   25.5904   71.7568 C   0  0  0  0  0  0
   21.2272   26.4916   71.2289 C   0  0  0  0  0  0
   21.0264   27.7412   71.8478 C   0  0  0  0  0  0
   20.0829   28.6437   71.3035 C   0  0  0  0  0  0
   19.8824   29.8888   71.9217 C   0  0  0  0  0  0
   20.6080   30.2365   73.0634 C   0  0  0  0  0  0
   21.5405   29.3393   73.5989 C   0  0  0  0  0  0
   21.7598   28.0853   72.9991 C   0  0  0  0  0  0
   19.2555   28.3505   70.0742 C   0  0  0  0  0  0
   20.0247   28.2403   68.5469 S   0  0  0  0  0  0
   17.9398   28.1667   70.1945 N   0  0  0  0  0  0
   17.3266   28.1595   71.5180 C   0  0  0  0  0  0
   17.0873   27.9510   69.0297 C   0  0  0  0  0  0
   16.5804   29.2805   68.4448 C   0  0  0  0  0  0
   17.3290   30.1340   68.0475 O   0  0  0  0  0  0
   15.2505   29.4182   68.4021 O   0  0  0  0  0  0
   14.8335   30.0954   68.8974 H   0  0  0  0  0  0
  1  2  1  0  0  0
  1  3  1  0  0  0
  1  4  1  0  0  0
  1  5  1  0  0  0
  5  6  2  0  0  0
  5 16  1  0  0  0
  6  7  1  0  0  0
  6  9  1  0  0  0
  7  8  1  0  0  0
  9 10  2  0  0  0
 10 11  1  0  0  0
 11 12  2  0  0  0
 11 16  1  0  0  0
 12 13  1  0  0  0
 12 17  1  0  0  0
 13 14  2  0  0  0
 14 15  1  0  0  0
 15 16  2  0  0  0
 17 18  2  0  0  0
 17 19  1  0  0  0
 19 20  1  0  0  0
 19 21  1  0  0  0
 21 22  1  0  0  0
 22 23  2  0  0  0
 22 24  1  0  0  0
 24 25  1  0  0  0
M  END
>  <CHROM.0>
160.91726093,-67.05223528,-100.36825452,71.04281181,58.46891333,60.56347085
97.86100526,-152.65368067,-61.18859492,-61.54190337,-86.82857301,-61.41326028
-60.50081437,-6.73458487

>  <CHROM.1>
-14.94034876,98.89661547,-68.08936457,-88.44094855,59.30838325,117.05852672
20.70195576,27.88354470,71.85800852,0.16834347,-0.75463867,0.62561493

>  <FORMUL>
      TOL    C16 H14 F3 N1 O3 S1

>  <HET>
 TOL  A 320      24

>  <HETNAM>
     TOL TOLRESTAT

>  <Name>
TOL.pdb

>  <RI>
0

>  <Rbt.Current_Directory>
/home/malgorzata/Desktop/rDOCK_IFD/Wyniki/1_aldose_rductase

>  <Rbt.Executable>
rbdock ($Id: //depot/dev/client3/rdock/2013.1/src/exe/rbdock.cxx#4 $)

>  <Rbt.Library>
libRbt.so (2013.1, Build901 2013/11/27)

>  <Rbt.Parameter_File>
/home/malgorzata/Desktop/rDock_2013.1_src/data/scripts/soft_docking.prm

>  <Rbt.Receptor>
cavity.prm

>  <SCORE>
-37.8378

>  <SCORE.INTER>
-27.6504

>  <SCORE.INTER.CONST>
1

>  <SCORE.INTER.POLAR>
-2.59057

>  <SCORE.INTER.REPUL>
0.535804

>  <SCORE.INTER.ROT>
5

>  <SCORE.INTER.VDW>
-31.9215

>  <SCORE.INTER.norm>
-1.1521

>  <SCORE.INTRA>
-2.41077

>  <SCORE.INTRA.DIHEDRAL>
21.6366

>  <SCORE.INTRA.DIHEDRAL.0>
16.9783

>  <SCORE.INTRA.POLAR>
0

>  <SCORE.INTRA.POLAR.0>
0

>  <SCORE.INTRA.REPUL>
0

>  <SCORE.INTRA.REPUL.0>
0

>  <SCORE.INTRA.VDW>
-6.73808

>  <SCORE.INTRA.VDW.0>
4.87734

>  <SCORE.INTRA.norm>
-0.100449

>  <SCORE.RESTR>
0

>  <SCORE.RESTR.CAVITY>
0

>  <SCORE.RESTR.norm>
0

>  <SCORE.SYSTEM>
-7.77661

>  <SCORE.SYSTEM.CONST>
0

>  <SCORE.SYSTEM.DIHEDRAL>
9.91473

>  <SCORE.SYSTEM.POLAR>
-3.484

>  <SCORE.SYSTEM.REPUL>
1.17999

>  <SCORE.SYSTEM.VDW>
-6.78832

>  <SCORE.SYSTEM.norm>
-0.324026

>  <SCORE.heavy>
24

>  <SCORE.norm>
-1.57658

$$$$
TOL.pdb
  rDOCK(R)          3D
libRbt.so/2013.1/901 2013/11/27
 25 26  0  0  0  0  0  0  0  0999 V2000
   23.5516   28.6196   72.8943 C   0  0  0  0  0  0
   22.8183   28.6988   74.0331 F   0  0  0  0  0  0
   24.0834   29.8523   72.6804 F   0  0  0  0  0  0
   24.5868   27.7669   73.1183 F   0  0  0  0  0  0
   22.6973   28.1411   71.7004 C   0  0  0  0  0  0
   23.0429   27.0421   70.8716 C   0  0  0  0  0  0
   24.1537   26.3682   71.1087 O   0  0  0  0  0  0
   23.9874   25.3545   72.0863 C   0  0  0  0  0  0
   22.1925   26.6883   69.8012 C   0  0  0  0  0  0
   21.0178   27.4067   69.5516 C   0  0  0  0  0  0
   20.6726   28.4998   70.3707 C   0  0  0  0  0  0
   19.4832   29.2187   70.1070 C   0  0  0  0  0  0
   19.1391   30.3076   70.9247 C   0  0  0  0  0  0
   19.9629   30.6808   71.9890 C   0  0  0  0  0  0
   21.1391   29.9655   72.2466 C   0  0  0  0  0  0
   21.5063   28.8703   71.4428 C   0  0  0  0  0  0
   18.5349   28.8848   68.9795 C   0  0  0  0  0  0
   18.8952   29.4143   67.3902 S   0  0  0  0  0  0
   17.4373   28.1701   69.2322 N   0  0  0  0  0  0
   17.2091   27.6410   70.5723 C   0  0  0  0  0  0
   16.4552   27.8819   68.1919 C   0  0  0  0  0  0
   15.4133   29.0070   68.0691 C   0  0  0  0  0  0
   15.6341   30.0233   67.4647 O   0  0  0  0  0  0
   14.2434   28.7738   68.6743 O   0  0  0  0  0  0
   14.2133   28.2475   69.4489 H   0  0  0  0  0  0
  1  2  1  0  0  0
  1  3  1  0  0  0
  1  4  1  0  0  0
  1  5  1  0  0  0
  5  6  2  0  0  0
  5 16  1  0  0  0
  6  7  1  0  0  0
  6  9  1  0  0  0
  7  8  1  0  0  0
  9 10  2  0  0  0
 10 11  1  0  0  0
 11 12  2  0  0  0
 11 16  1  0  0  0
 12 13  1  0  0  0
 12 17  1  0  0  0
 13 14  2  0  0  0
 14 15  1  0  0  0
 15 16  2  0  0  0
 17 18  2  0  0  0
 17 19  1  0  0  0
 19 20  1  0  0  0
 19 21  1  0  0  0
 21 22  1  0  0  0
 22 23  2  0  0  0
 22 24  1  0  0  0
 24 25  1  0  0  0
M  END
>  <CHROM.0>
-20.77195086,28.71877350,-63.25215523,135.81125792,-169.36136856,163.33323577
-44.49112831,-73.95570227,-61.18859492,-61.54190337,-88.58108719,-61.41326028
-60.50081437,-112.62019433

>  <CHROM.1>
-126.75102311,84.92984351,-80.49224827,-86.89482021,80.57306521,31.17582808
20.32933826,28.50652616,70.48805008,0.23367147,-0.47922829,0.74157618

>  <FORMUL>
      TOL    C16 H14 F3 N1 O3 S1

>  <HET>
 TOL  A 320      24

>  <HETNAM>
     TOL TOLRESTAT

>  <Name>
TOL.pdb

>  <RI>
0

>  <Rbt.Current_Directory>
/home/malgorzata/Desktop/rDOCK_IFD/Wyniki/1_aldose_rductase

>  <Rbt.Executable>
rbdock ($Id: //depot/dev/client3/rdock/2013.1/src/exe/rbdock.cxx#4 $)

>  <Rbt.Library>
libRbt.so (2013.1, Build901 2013/11/27)

>  <Rbt.Parameter_File>
/home/malgorzata/Desktop/rDock_2013.1_src/data/scripts/soft_docking.prm

>  <Rbt.Receptor>
cavity.prm

>  <SCORE>
-44.2517

>  <SCORE.INTER>
-32.5837

>  <SCORE.INTER.CONST>
1

>  <SCORE.INTER.POLAR>
-1.61123

>  <SCORE.INTER.REPUL>
0.160893

>  <SCORE.INTER.ROT>
5

>  <SCORE.INTER.VDW>
-38.31

>  <SCORE.INTER.norm>
-1.35766

>  <SCORE.INTRA>
-4.09504

>  <SCORE.INTRA.DIHEDRAL>
10.8203

>  <SCORE.INTRA.DIHEDRAL.0>
16.9783

>  <SCORE.INTRA.POLAR>
0

>  <SCORE.INTRA.POLAR.0>
0

>  <SCORE.INTRA.REPUL>
0

>  <SCORE.INTRA.REPUL.0>
0

>  <SCORE.INTRA.VDW>
-6.2591

>  <SCORE.INTRA.VDW.0>
4.87734

>  <SCORE.INTRA.norm>
-0.170627

>  <SCORE.RESTR>
0.123097

>  <SCORE.RESTR.CAVITY>
0.0246194

>  <SCORE.RESTR.norm>
0.00512905

>  <SCORE.SYSTEM>
-7.69603

>  <SCORE.SYSTEM.CONST>
0

>  <SCORE.SYSTEM.DIHEDRAL>
13.3057

>  <SCORE.SYSTEM.POLAR>
-3.37863

>  <SCORE.SYSTEM.REPUL>
1.16943

>  <SCORE.SYSTEM.VDW>
-8.7087

>  <SCORE.SYSTEM.norm>
-0.320668

>  <SCORE.heavy>
24

>  <SCORE.norm>
-1.84382

$$$$
