TOL.pdb
  rDOCK(R)          3D
libRbt.so/2013.1/901 2013/11/27
 25 26  0  0  0  0  0  0  0  0999 V2000
   16.1576   30.4363   65.6554 C   0  0  0  0  0  0
   15.0091   29.7678   65.9293 F   0  0  0  0  0  0
   16.2720   30.4866   64.3017 F   0  0  0  0  0  0
   16.0162   31.7148   66.0961 F   0  0  0  0  0  0
   17.3792   29.7618   66.3163 C   0  0  0  0  0  0
   18.5398   29.3588   65.6059 C   0  0  0  0  0  0
   18.6107   29.5582   64.3023 O   0  0  0  0  0  0
   18.2903   28.4011   63.5477 C   0  0  0  0  0  0
   19.6019   28.7458   66.3063 C   0  0  0  0  0  0
   19.5217   28.5338   67.6873 C   0  0  0  0  0  0
   18.3701   28.9304   68.3955 C   0  0  0  0  0  0
   18.3008   28.7092   69.7910 C   0  0  0  0  0  0
   17.1531   29.1058   70.4966 C   0  0  0  0  0  0
   16.0868   29.7123   69.8288 C   0  0  0  0  0  0
   16.1604   29.9299   68.4473 C   0  0  0  0  0  0
   17.2993   29.5425   67.7171 C   0  0  0  0  0  0
   19.4054   28.0615   70.5924 C   0  0  0  0  0  0
   19.4966   26.3524   70.6746 S   0  0  0  0  0  0
   20.3039   28.8270   71.2137 N   0  0  0  0  0  0
   20.2670   30.2749   71.0401 C   0  0  0  0  0  0
   21.3471   28.2522   72.0571 C   0  0  0  0  0  0
   22.6170   27.9337   71.2495 C   0  0  0  0  0  0
   23.5384   28.7031   71.1719 O   0  0  0  0  0  0
   22.6287   26.7399   70.6461 O   0  0  0  0  0  0
   23.4278   26.4010   70.2933 H   0  0  0  0  0  0
  1  2  1  0  0  0
  1  3  1  0  0  0
  1  4  1  0  0  0
  1  5  1  0  0  0
  5  6  2  0  0  0
  5 16  1  0  0  0
  6  7  1  0  0  0
  6  9  1  0  0  0
  7  8  1  0  0  0
  9 10  2  0  0  0
 10 11  1  0  0  0
 11 12  2  0  0  0
 11 16  1  0  0  0
 12 13  1  0  0  0
 12 17  1  0  0  0
 13 14  2  0  0  0
 14 15  1  0  0  0
 15 16  2  0  0  0
 17 18  2  0  0  0
 17 19  1  0  0  0
 19 20  1  0  0  0
 19 21  1  0  0  0
 21 22  1  0  0  0
 22 23  2  0  0  0
 22 24  1  0  0  0
 24 25  1  0  0  0
M  END
>  <CHROM.0>
46.79874968,24.75379664,52.79850273,137.46619080,57.26661143,139.82161505
97.33819141,-154.60941301,-61.18859492,-61.54190337,-39.18477917,-61.41326028
-60.50081437,58.00831377

>  <CHROM.1>
125.49206304,-98.64956381,-84.28028912,89.97027827,94.50463202,-166.98009289
18.68808988,28.98424371,68.30448065,2.27739363,0.36275587,-1.49893565

>  <FORMUL>
      TOL    C16 H14 F3 N1 O3 S1

>  <HET>
 TOL  A 320      24

>  <HETNAM>
     TOL TOLRESTAT

>  <Name>
TOL.pdb

>  <RI>
0

>  <Rbt.Current_Directory>
/home/malgorzata/Desktop/rDOCK_IFD/Wyniki/1_aldose_rductase

>  <Rbt.Executable>
rbdock ($Id: //depot/dev/client3/rdock/2013.1/src/exe/rbdock.cxx#4 $)

>  <Rbt.Library>
libRbt.so (2013.1, Build901 2013/11/27)

>  <Rbt.Parameter_File>
/home/malgorzata/Desktop/rDock_2013.1_src/data/scripts/soft_docking.prm

>  <Rbt.Receptor>
cavity.prm

>  <SCORE>
-50.0858

>  <SCORE.INTER>
-36.5102

>  <SCORE.INTER.CONST>
1

>  <SCORE.INTER.POLAR>
-1.7997

>  <SCORE.INTER.REPUL>
0

>  <SCORE.INTER.ROT>
5

>  <SCORE.INTER.VDW>
-40.7912

>  <SCORE.INTER.norm>
-1.52126

>  <SCORE.INTRA>
-6.43403

>  <SCORE.INTRA.DIHEDRAL>
6.06064

>  <SCORE.INTRA.DIHEDRAL.0>
16.9783

>  <SCORE.INTRA.POLAR>
0

>  <SCORE.INTRA.POLAR.0>
0

>  <SCORE.INTRA.REPUL>
0

>  <SCORE.INTRA.REPUL.0>
0

>  <SCORE.INTRA.VDW>
-7.64616

>  <SCORE.INTRA.VDW.0>
4.87734

>  <SCORE.INTRA.norm>
-0.268085

>  <SCORE.RESTR>
0

>  <SCORE.RESTR.CAVITY>
0

>  <SCORE.RESTR.norm>
0

>  <SCORE.SYSTEM>
-7.14164

>  <SCORE.SYSTEM.CONST>
0

>  <SCORE.SYSTEM.DIHEDRAL>
18.3159

>  <SCORE.SYSTEM.POLAR>
-4.51739

>  <SCORE.SYSTEM.REPUL>
1.16943

>  <SCORE.SYSTEM.VDW>
-6.78765

>  <SCORE.SYSTEM.norm>
-0.297568

>  <SCORE.heavy>
24

>  <SCORE.norm>
-2.08691

$$$$
TOL.pdb
  rDOCK(R)          3D
libRbt.so/2013.1/901 2013/11/27
 25 26  0  0  0  0  0  0  0  0999 V2000
   16.0487   29.3593   62.8044 C   0  0  0  0  0  0
   14.9080   29.9711   63.2113 F   0  0  0  0  0  0
   15.7505   28.6881   61.6604 F   0  0  0  0  0  0
   16.9521   30.3232   62.4829 F   0  0  0  0  0  0
   16.6121   28.4237   63.8960 C   0  0  0  0  0  0
   16.9412   27.0609   63.6759 C   0  0  0  0  0  0
   16.7674   26.5314   62.4785 O   0  0  0  0  0  0
   17.9378   26.5758   61.6790 C   0  0  0  0  0  0
   17.4476   26.2898   64.7451 C   0  0  0  0  0  0
   17.6278   26.8540   66.0130 C   0  0  0  0  0  0
   17.2998   28.2059   66.2361 C   0  0  0  0  0  0
   17.4853   28.7638   67.5227 C   0  0  0  0  0  0
   17.1593   30.1119   67.7440 C   0  0  0  0  0  0
   16.6546   30.8972   66.7050 C   0  0  0  0  0  0
   16.4735   30.3405   65.4328 C   0  0  0  0  0  0
   16.7929   28.9926   65.1845 C   0  0  0  0  0  0
   18.0250   27.9892   68.7019 C   0  0  0  0  0  0
   16.9841   26.9404   69.5694 S   0  0  0  0  0  0
   19.3077   28.1199   69.0441 N   0  0  0  0  0  0
   20.1972   28.9357   68.2249 C   0  0  0  0  0  0
   19.8594   27.4485   70.2166 C   0  0  0  0  0  0
   20.1555   28.4432   71.3520 C   0  0  0  0  0  0
   21.1277   29.1516   71.3478 O   0  0  0  0  0  0
   19.2538   28.4711   72.3397 O   0  0  0  0  0  0
   19.1707   29.2343   72.8769 H   0  0  0  0  0  0
  1  2  1  0  0  0
  1  3  1  0  0  0
  1  4  1  0  0  0
  1  5  1  0  0  0
  5  6  2  0  0  0
  5 16  1  0  0  0
  6  7  1  0  0  0
  6  9  1  0  0  0
  7  8  1  0  0  0
  9 10  2  0  0  0
 10 11  1  0  0  0
 11 12  2  0  0  0
 11 16  1  0  0  0
 12 13  1  0  0  0
 12 17  1  0  0  0
 13 14  2  0  0  0
 14 15  1  0  0  0
 15 16  2  0  0  0
 17 18  2  0  0  0
 17 19  1  0  0  0
 19 20  1  0  0  0
 19 21  1  0  0  0
 21 22  1  0  0  0
 22 23  2  0  0  0
 22 24  1  0  0  0
 24 25  1  0  0  0
M  END
>  <CHROM.0>
-1.10378027,57.02313921,-67.49669179,154.58882792,175.83601428,-55.18432120
101.66966758,-174.92106823,-61.18859492,-61.54190337,-169.06441005,-61.41326028
-60.50081437,-132.21293488

>  <CHROM.1>
127.44408177,93.99458934,-79.38473301,-108.00040065,-77.90539505,-156.66990763
17.60265172,28.41527273,66.40542456,2.51566554,1.12302556,-2.43251580

>  <FORMUL>
      TOL    C16 H14 F3 N1 O3 S1

>  <HET>
 TOL  A 320      24

>  <HETNAM>
     TOL TOLRESTAT

>  <Name>
TOL.pdb

>  <RI>
0

>  <Rbt.Current_Directory>
/home/malgorzata/Desktop/rDOCK_IFD/Wyniki/1_aldose_rductase

>  <Rbt.Executable>
rbdock ($Id: //depot/dev/client3/rdock/2013.1/src/exe/rbdock.cxx#4 $)

>  <Rbt.Library>
libRbt.so (2013.1, Build901 2013/11/27)

>  <Rbt.Parameter_File>
/home/malgorzata/Desktop/rDock_2013.1_src/data/scripts/soft_docking.prm

>  <Rbt.Receptor>
cavity.prm

>  <SCORE>
-48.6793

>  <SCORE.INTER>
-27.5418

>  <SCORE.INTER.CONST>
1

>  <SCORE.INTER.POLAR>
-0.992124

>  <SCORE.INTER.REPUL>
0

>  <SCORE.INTER.ROT>
5

>  <SCORE.INTER.VDW>
-34.5686

>  <SCORE.INTER.norm>
-1.14758

>  <SCORE.INTRA>
-5.59815

>  <SCORE.INTRA.DIHEDRAL>
8.19064

>  <SCORE.INTRA.DIHEDRAL.0>
16.9783

>  <SCORE.INTRA.POLAR>
0

>  <SCORE.INTRA.POLAR.0>
0

>  <SCORE.INTRA.REPUL>
0

>  <SCORE.INTRA.REPUL.0>
0

>  <SCORE.INTRA.VDW>
-7.23628

>  <SCORE.INTRA.VDW.0>
4.87734

>  <SCORE.INTRA.norm>
-0.233256

>  <SCORE.RESTR>
0

>  <SCORE.RESTR.CAVITY>
0

>  <SCORE.RESTR.norm>
0

>  <SCORE.SYSTEM>
-15.5393

>  <SCORE.SYSTEM.CONST>
0

>  <SCORE.SYSTEM.DIHEDRAL>
3.26124

>  <SCORE.SYSTEM.POLAR>
-4.36974

>  <SCORE.SYSTEM.REPUL>
1.16943

>  <SCORE.SYSTEM.VDW>
-8.15993

>  <SCORE.SYSTEM.norm>
-0.64747

>  <SCORE.heavy>
24

>  <SCORE.norm>
-2.0283

$$$$
TOL.pdb
  rDOCK(R)          3D
libRbt.so/2013.1/901 2013/11/27
 25 26  0  0  0  0  0  0  0  0999 V2000
   18.3073   28.9992   72.1569 C   0  0  0  0  0  0
   18.6375   28.2637   73.2481 F   0  0  0  0  0  0
   16.9498   29.0146   72.0870 F   0  0  0  0  0  0
   18.7148   30.2784   72.3719 F   0  0  0  0  0  0
   18.9480   28.4296   70.8726 C   0  0  0  0  0  0
   19.9241   27.3994   70.8664 C   0  0  0  0  0  0
   20.3295   26.8758   72.0091 O   0  0  0  0  0  0
   21.4739   27.5240   72.5392 C   0  0  0  0  0  0
   20.4502   26.9520   69.6346 C   0  0  0  0  0  0
   20.0200   27.5114   68.4261 C   0  0  0  0  0  0
   19.0530   28.5360   68.4284 C   0  0  0  0  0  0
   18.6275   29.0941   67.2002 C   0  0  0  0  0  0
   17.6626   30.1147   67.2032 C   0  0  0  0  0  0
   17.1269   30.5779   68.4070 C   0  0  0  0  0  0
   17.5508   30.0216   69.6205 C   0  0  0  0  0  0
   18.5157   28.9976   69.6450 C   0  0  0  0  0  0
   19.1523   28.6543   65.8537 C   0  0  0  0  0  0
   20.8336   28.7416   65.5346 S   0  0  0  0  0  0
   18.3030   28.1902   64.9357 N   0  0  0  0  0  0
   16.8927   28.0258   65.2699 C   0  0  0  0  0  0
   18.7504   27.8195   63.5969 C   0  0  0  0  0  0
   18.6077   28.9891   62.6079 C   0  0  0  0  0  0
   18.2710   28.8259   61.4647 O   0  0  0  0  0  0
   18.8766   30.1999   63.1090 O   0  0  0  0  0  0
   19.1947   30.2838   63.9863 H   0  0  0  0  0  0
  1  2  1  0  0  0
  1  3  1  0  0  0
  1  4  1  0  0  0
  1  5  1  0  0  0
  5  6  2  0  0  0
  5 16  1  0  0  0
  6  7  1  0  0  0
  6  9  1  0  0  0
  7  8  1  0  0  0
  9 10  2  0  0  0
 10 11  1  0  0  0
 11 12  2  0  0  0
 11 16  1  0  0  0
 12 13  1  0  0  0
 12 17  1  0  0  0
 13 14  2  0  0  0
 14 15  1  0  0  0
 15 16  2  0  0  0
 17 18  2  0  0  0
 17 19  1  0  0  0
 19 20  1  0  0  0
 19 21  1  0  0  0
 21 22  1  0  0  0
 22 23  2  0  0  0
 22 24  1  0  0  0
 24 25  1  0  0  0
M  END
>  <CHROM.0>
128.62697571,-18.18920521,-108.48369120,160.80218219,-53.34977163,99.40962688
-26.79114645,-160.68814898,-61.18859492,-61.54190337,-165.93374481,-61.41326028
-60.50081437,-165.18457370

>  <CHROM.1>
-9.26362131,-92.04397234,-57.78733273,-93.16930612,-142.52872725,4.69720434
18.91246148,28.68866843,68.18923539,1.52632698,-0.59073813,1.59575391

>  <FORMUL>
      TOL    C16 H14 F3 N1 O3 S1

>  <HET>
 TOL  A 320      24

>  <HETNAM>
     TOL TOLRESTAT

>  <Name>
TOL.pdb

>  <RI>
0

>  <Rbt.Current_Directory>
/home/malgorzata/Desktop/rDOCK_IFD/Wyniki/1_aldose_rductase

>  <Rbt.Executable>
rbdock ($Id: //depot/dev/client3/rdock/2013.1/src/exe/rbdock.cxx#4 $)

>  <Rbt.Library>
libRbt.so (2013.1, Build901 2013/11/27)

>  <Rbt.Parameter_File>
/home/malgorzata/Desktop/rDock_2013.1_src/data/scripts/soft_docking.prm

>  <Rbt.Receptor>
cavity.prm

>  <SCORE>
-35.5119

>  <SCORE.INTER>
-24.4077

>  <SCORE.INTER.CONST>
1

>  <SCORE.INTER.POLAR>
-0.79486

>  <SCORE.INTER.REPUL>
0.0422651

>  <SCORE.INTER.ROT>
5

>  <SCORE.INTER.VDW>
-32.3165

>  <SCORE.INTER.norm>
-1.01699

>  <SCORE.INTRA>
-5.49079

>  <SCORE.INTRA.DIHEDRAL>
1.59693

>  <SCORE.INTRA.DIHEDRAL.0>
16.9783

>  <SCORE.INTRA.POLAR>
0

>  <SCORE.INTRA.POLAR.0>
0

>  <SCORE.INTRA.REPUL>
0

>  <SCORE.INTRA.REPUL.0>
0

>  <SCORE.INTRA.VDW>
-5.81018

>  <SCORE.INTRA.VDW.0>
4.87734

>  <SCORE.INTRA.norm>
-0.228783

>  <SCORE.RESTR>
0.3067

>  <SCORE.RESTR.CAVITY>
0.06134

>  <SCORE.RESTR.norm>
0.0127792

>  <SCORE.SYSTEM>
-5.92019

>  <SCORE.SYSTEM.CONST>
0

>  <SCORE.SYSTEM.DIHEDRAL>
17.0821

>  <SCORE.SYSTEM.POLAR>
-3.87535

>  <SCORE.SYSTEM.REPUL>
1.16943

>  <SCORE.SYSTEM.VDW>
-7.13222

>  <SCORE.SYSTEM.norm>
-0.246674

>  <SCORE.heavy>
24

>  <SCORE.norm>
-1.47966

$$$$
TOL.pdb
  rDOCK(R)          3D
libRbt.so/2013.1/901 2013/11/27
 25 26  0  0  0  0  0  0  0  0999 V2000
   16.6271   28.4453   62.2400 C   0  0  0  0  0  0
   17.3229   28.2241   61.0964 F   0  0  0  0  0  0
   16.2380   29.7477   62.2200 F   0  0  0  0  0  0
   15.4994   27.6867   62.2005 F   0  0  0  0  0  0
   17.4682   28.1101   63.4908 C   0  0  0  0  0  0
   18.5398   27.1797   63.4964 C   0  0  0  0  0  0
   18.8621   26.5468   62.3829 O   0  0  0  0  0  0
   18.9496   25.1414   62.5512 C   0  0  0  0  0  0
   19.2441   26.9425   64.6972 C   0  0  0  0  0  0
   18.8977   27.6132   65.8756 C   0  0  0  0  0  0
   17.8329   28.5357   65.8745 C   0  0  0  0  0  0
   17.4918   29.2061   67.0726 C   0  0  0  0  0  0
   16.4309   30.1265   67.0706 C   0  0  0  0  0  0
   15.7158   30.3788   65.8976 C   0  0  0  0  0  0
   16.0578   29.7132   64.7138 C   0  0  0  0  0  0
   17.1168   28.7868   64.6888 C   0  0  0  0  0  0
   18.2102   28.9949   68.3845 C   0  0  0  0  0  0
   19.7967   29.6105   68.5854 S   0  0  0  0  0  0
   17.5959   28.3453   69.3745 N   0  0  0  0  0  0
   16.2080   27.9259   69.2151 C   0  0  0  0  0  0
   18.2722   28.0544   70.6347 C   0  0  0  0  0  0
   18.4336   26.5405   70.8546 C   0  0  0  0  0  0
   17.6887   25.9109   71.5585 O   0  0  0  0  0  0
   19.4545   25.9721   70.2034 O   0  0  0  0  0  0
   19.7055   25.0917   70.4031 H   0  0  0  0  0  0
  1  2  1  0  0  0
  1  3  1  0  0  0
  1  4  1  0  0  0
  1  5  1  0  0  0
  5  6  2  0  0  0
  5 16  1  0  0  0
  6  7  1  0  0  0
  6  9  1  0  0  0
  7  8  1  0  0  0
  9 10  2  0  0  0
 10 11  1  0  0  0
 11 12  2  0  0  0
 11 16  1  0  0  0
 12 13  1  0  0  0
 12 17  1  0  0  0
 13 14  2  0  0  0
 14 15  1  0  0  0
 15 16  2  0  0  0
 17 18  2  0  0  0
 17 19  1  0  0  0
 19 20  1  0  0  0
 19 21  1  0  0  0
 21 22  1  0  0  0
 22 23  2  0  0  0
 22 24  1  0  0  0
 24 25  1  0  0  0
M  END
>  <CHROM.0>
-3.72235436,36.04844929,105.10504369,98.36327114,-155.39184058,97.26867130
-140.67806875,-136.29761468,-61.18859492,-61.54190337,173.10100787,-61.41326028
-60.50081437,155.52664895

>  <CHROM.1>
-25.73580036,-129.01904416,71.77267100,-115.74717106,-99.23561085,169.34378996
17.74283731,28.10173044,66.03284489,1.84163356,0.94620143,-1.74302596

>  <FORMUL>
      TOL    C16 H14 F3 N1 O3 S1

>  <HET>
 TOL  A 320      24

>  <HETNAM>
     TOL TOLRESTAT

>  <Name>
TOL.pdb

>  <RI>
0

>  <Rbt.Current_Directory>
/home/malgorzata/Desktop/rDOCK_IFD/Wyniki/1_aldose_rductase

>  <Rbt.Executable>
rbdock ($Id: //depot/dev/client3/rdock/2013.1/src/exe/rbdock.cxx#4 $)

>  <Rbt.Library>
libRbt.so (2013.1, Build901 2013/11/27)

>  <Rbt.Parameter_File>
/home/malgorzata/Desktop/rDock_2013.1_src/data/scripts/soft_docking.prm

>  <Rbt.Receptor>
cavity.prm

>  <SCORE>
-37.3306

>  <SCORE.INTER>
-27.6481

>  <SCORE.INTER.CONST>
1

>  <SCORE.INTER.POLAR>
-0.67884

>  <SCORE.INTER.REPUL>
0

>  <SCORE.INTER.ROT>
5

>  <SCORE.INTER.VDW>
-35.7401

>  <SCORE.INTER.norm>
-1.152

>  <SCORE.INTRA>
-3.08648

>  <SCORE.INTRA.DIHEDRAL>
2.67775

>  <SCORE.INTRA.DIHEDRAL.0>
16.9783

>  <SCORE.INTRA.POLAR>
0

>  <SCORE.INTRA.POLAR.0>
0

>  <SCORE.INTRA.REPUL>
0

>  <SCORE.INTRA.REPUL.0>
0

>  <SCORE.INTRA.VDW>
-3.62203

>  <SCORE.INTRA.VDW.0>
4.87734

>  <SCORE.INTRA.norm>
-0.128603

>  <SCORE.RESTR>
0

>  <SCORE.RESTR.CAVITY>
0

>  <SCORE.RESTR.norm>
0

>  <SCORE.SYSTEM>
-6.59603

>  <SCORE.SYSTEM.CONST>
0

>  <SCORE.SYSTEM.DIHEDRAL>
16.5725

>  <SCORE.SYSTEM.POLAR>
-3.68449

>  <SCORE.SYSTEM.REPUL>
1.16943

>  <SCORE.SYSTEM.VDW>
-8.20217

>  <SCORE.SYSTEM.norm>
-0.274835

>  <SCORE.heavy>
24

>  <SCORE.norm>
-1.55544

$$$$
TOL.pdb
  rDOCK(R)          3D
libRbt.so/2013.1/901 2013/11/27
 25 26  0  0  0  0  0  0  0  0999 V2000
   15.3933   29.9350   64.8502 C   0  0  0  0  0  0
   14.4366   29.0031   65.0890 F   0  0  0  0  0  0
   15.5596   29.9939   63.5022 F   0  0  0  0  0  0
   14.9144   31.1428   65.2509 F   0  0  0  0  0  0
   16.7101   29.5983   65.5830 C   0  0  0  0  0  0
   17.9044   29.2083   64.9229 C   0  0  0  0  0  0
   17.9240   29.1188   63.6054 O   0  0  0  0  0  0
   18.2413   27.8158   63.1444 C   0  0  0  0  0  0
   19.0551   28.9181   65.6884 C   0  0  0  0  0  0
   19.0293   29.0116   67.0845 C   0  0  0  0  0  0
   17.8449   29.3960   67.7435 C   0  0  0  0  0  0
   17.8316   29.4853   69.1552 C   0  0  0  0  0  0
   16.6508   29.8697   69.8114 C   0  0  0  0  0  0
   15.4974   30.1605   69.0793 C   0  0  0  0  0  0
   15.5158   30.0713   67.6817 C   0  0  0  0  0  0
   16.6860   29.6891   67.0000 C   0  0  0  0  0  0
   19.0310   29.1900   70.0247 C   0  0  0  0  0  0
   20.0597   30.4730   70.5060 S   0  0  0  0  0  0
   19.2662   27.9375   70.4187 N   0  0  0  0  0  0
   18.3167   26.8817   70.0844 C   0  0  0  0  0  0
   20.4490   27.5900   71.1998 C   0  0  0  0  0  0
   21.7250   27.6247   70.3412 C   0  0  0  0  0  0
   21.9392   28.5001   69.5445 O   0  0  0  0  0  0
   22.5824   26.6188   70.5472 O   0  0  0  0  0  0
   23.2956   26.4824   69.9549 H   0  0  0  0  0  0
  1  2  1  0  0  0
  1  3  1  0  0  0
  1  4  1  0  0  0
  1  5  1  0  0  0
  5  6  2  0  0  0
  5 16  1  0  0  0
  6  7  1  0  0  0
  6  9  1  0  0  0
  7  8  1  0  0  0
  9 10  2  0  0  0
 10 11  1  0  0  0
 11 12  2  0  0  0
 11 16  1  0  0  0
 12 13  1  0  0  0
 12 17  1  0  0  0
 13 14  2  0  0  0
 14 15  1  0  0  0
 15 16  2  0  0  0
 17 18  2  0  0  0
 17 19  1  0  0  0
 19 20  1  0  0  0
 19 21  1  0  0  0
 21 22  1  0  0  0
 22 23  2  0  0  0
 22 24  1  0  0  0
 24 25  1  0  0  0
M  END
>  <CHROM.0>
-21.10255904,63.88387815,140.62322877,14.68674795,64.85060358,-173.40189183
137.85302507,32.18689485,-61.18859492,-61.54190337,-162.38057166,-61.41326028
-60.50081437,-99.08933457

>  <CHROM.1>
111.38714477,-119.90971637,93.88743487,-72.88183317,42.47068739,168.40644671
18.07961648,29.11427400,67.60951341,2.33372747,0.43723492,-1.71187460

>  <FORMUL>
      TOL    C16 H14 F3 N1 O3 S1

>  <HET>
 TOL  A 320      24

>  <HETNAM>
     TOL TOLRESTAT

>  <Name>
TOL.pdb

>  <RI>
0

>  <Rbt.Current_Directory>
/home/malgorzata/Desktop/rDOCK_IFD/Wyniki/1_aldose_rductase

>  <Rbt.Executable>
rbdock ($Id: //depot/dev/client3/rdock/2013.1/src/exe/rbdock.cxx#4 $)

>  <Rbt.Library>
libRbt.so (2013.1, Build901 2013/11/27)

>  <Rbt.Parameter_File>
/home/malgorzata/Desktop/rDock_2013.1_src/data/scripts/soft_docking.prm

>  <Rbt.Receptor>
cavity.prm

>  <SCORE>
-43.5723

>  <SCORE.INTER>
-29.4644

>  <SCORE.INTER.CONST>
1

>  <SCORE.INTER.POLAR>
-1.14867

>  <SCORE.INTER.REPUL>
0

>  <SCORE.INTER.ROT>
5

>  <SCORE.INTER.VDW>
-35.9589

>  <SCORE.INTER.norm>
-1.22768

>  <SCORE.INTRA>
-5.52744

>  <SCORE.INTRA.DIHEDRAL>
4.75615

>  <SCORE.INTRA.DIHEDRAL.0>
16.9783

>  <SCORE.INTRA.POLAR>
0

>  <SCORE.INTRA.POLAR.0>
0

>  <SCORE.INTRA.REPUL>
0

>  <SCORE.INTRA.REPUL.0>
0

>  <SCORE.INTRA.VDW>
-6.47867

>  <SCORE.INTRA.VDW.0>
4.87734

>  <SCORE.INTRA.norm>
-0.23031

>  <SCORE.RESTR>
0

>  <SCORE.RESTR.CAVITY>
0

>  <SCORE.RESTR.norm>
0

>  <SCORE.SYSTEM>
-8.58047

>  <SCORE.SYSTEM.CONST>
0

>  <SCORE.SYSTEM.DIHEDRAL>
4.50614

>  <SCORE.SYSTEM.POLAR>
-2.91805

>  <SCORE.SYSTEM.REPUL>
1.16943

>  <SCORE.SYSTEM.VDW>
-6.75931

>  <SCORE.SYSTEM.norm>
-0.357519

>  <SCORE.heavy>
24

>  <SCORE.norm>
-1.81551

$$$$
TOL.pdb
  rDOCK(R)          3D
libRbt.so/2013.1/901 2013/11/27
 25 26  0  0  0  0  0  0  0  0999 V2000
   16.5230   30.0077   62.7210 C   0  0  0  0  0  0
   17.0272   28.8301   62.2741 F   0  0  0  0  0  0
   17.3653   30.9855   62.2940 F   0  0  0  0  0  0
   15.3253   30.2120   62.1106 F   0  0  0  0  0  0
   16.3617   30.0106   64.2567 C   0  0  0  0  0  0
   15.1570   30.3528   64.9241 C   0  0  0  0  0  0
   14.0930   30.6932   64.2195 O   0  0  0  0  0  0
   14.0202   32.0865   63.9660 C   0  0  0  0  0  0
   15.1163   30.3271   66.3355 C   0  0  0  0  0  0
   16.2467   29.9686   67.0785 C   0  0  0  0  0  0
   17.4453   29.6306   66.4195 C   0  0  0  0  0  0
   18.5812   29.2713   67.1821 C   0  0  0  0  0  0
   19.7754   28.9333   66.5246 C   0  0  0  0  0  0
   19.8444   28.9524   65.1297 C   0  0  0  0  0  0
   18.7168   29.3080   64.3790 C   0  0  0  0  0  0
   17.5082   29.6503   65.0134 C   0  0  0  0  0  0
   18.5959   29.2237   68.6919 C   0  0  0  0  0  0
   19.7546   30.1464   69.5533 S   0  0  0  0  0  0
   17.6982   28.4760   69.3358 N   0  0  0  0  0  0
   16.6563   27.7855   68.5838 C   0  0  0  0  0  0
   17.7153   28.3411   70.7889 C   0  0  0  0  0  0
   16.7803   29.3596   71.4634 C   0  0  0  0  0  0
   16.0933   30.1177   70.8307 O   0  0  0  0  0  0
   16.7787   29.3387   72.8009 O   0  0  0  0  0  0
   15.9677   29.2917   73.2677 H   0  0  0  0  0  0
  1  2  1  0  0  0
  1  3  1  0  0  0
  1  4  1  0  0  0
  1  5  1  0  0  0
  5  6  2  0  0  0
  5 16  1  0  0  0
  6  7  1  0  0  0
  6  9  1  0  0  0
  7  8  1  0  0  0
  9 10  2  0  0  0
 10 11  1  0  0  0
 11 12  2  0  0  0
 11 16  1  0  0  0
 12 13  1  0  0  0
 12 17  1  0  0  0
 13 14  2  0  0  0
 14 15  1  0  0  0
 15 16  2  0  0  0
 17 18  2  0  0  0
 17 19  1  0  0  0
 19 20  1  0  0  0
 19 21  1  0  0  0
 21 22  1  0  0  0
 22 23  2  0  0  0
 22 24  1  0  0  0
 24 25  1  0  0  0
M  END
>  <CHROM.0>
-19.33824844,-56.43873142,135.83025416,142.65544925,47.77667468,-49.66006847
138.68495084,-152.59252105,-61.18859492,-61.54190337,-93.00681592,-61.41326028
-60.50081437,-38.43268363

>  <CHROM.1>
-127.93335604,-90.24462763,-123.93401445,94.08751745,2.95274125,-129.43193313
17.11423682,29.71379327,66.59001626,-1.78605257,-0.26492971,1.64301171

>  <FORMUL>
      TOL    C16 H14 F3 N1 O3 S1

>  <HET>
 TOL  A 320      24

>  <HETNAM>
     TOL TOLRESTAT

>  <Name>
TOL.pdb

>  <RI>
0

>  <Rbt.Current_Directory>
/home/malgorzata/Desktop/rDOCK_IFD/Wyniki/1_aldose_rductase

>  <Rbt.Executable>
rbdock ($Id: //depot/dev/client3/rdock/2013.1/src/exe/rbdock.cxx#4 $)

>  <Rbt.Library>
libRbt.so (2013.1, Build901 2013/11/27)

>  <Rbt.Parameter_File>
/home/malgorzata/Desktop/rDock_2013.1_src/data/scripts/soft_docking.prm

>  <Rbt.Receptor>
cavity.prm

>  <SCORE>
-37.2139

>  <SCORE.INTER>
-28.6762

>  <SCORE.INTER.CONST>
1

>  <SCORE.INTER.POLAR>
-0.600432

>  <SCORE.INTER.REPUL>
0

>  <SCORE.INTER.ROT>
5

>  <SCORE.INTER.VDW>
-37.0347

>  <SCORE.INTER.norm>
-1.19484

>  <SCORE.INTRA>
1.76185

>  <SCORE.INTRA.DIHEDRAL>
14.8472

>  <SCORE.INTRA.DIHEDRAL.0>
16.9783

>  <SCORE.INTRA.POLAR>
0

>  <SCORE.INTRA.POLAR.0>
0

>  <SCORE.INTRA.REPUL>
0

>  <SCORE.INTRA.REPUL.0>
0

>  <SCORE.INTRA.VDW>
-1.20759

>  <SCORE.INTRA.VDW.0>
4.87734

>  <SCORE.INTRA.norm>
0.0734105

>  <SCORE.RESTR>
0.74677

>  <SCORE.RESTR.CAVITY>
0.149354

>  <SCORE.RESTR.norm>
0.0311154

>  <SCORE.SYSTEM>
-11.0463

>  <SCORE.SYSTEM.CONST>
0

>  <SCORE.SYSTEM.DIHEDRAL>
9.05517

>  <SCORE.SYSTEM.POLAR>
-3.92972

>  <SCORE.SYSTEM.REPUL>
1.16943

>  <SCORE.SYSTEM.VDW>
-8.06

>  <SCORE.SYSTEM.norm>
-0.460263

>  <SCORE.heavy>
24

>  <SCORE.norm>
-1.55058

$$$$
TOL.pdb
  rDOCK(R)          3D
libRbt.so/2013.1/901 2013/11/27
 25 26  0  0  0  0  0  0  0  0999 V2000
   26.3786   26.6051   74.5966 C   0  0  0  0  0  0
   26.5497   26.0287   75.8128 F   0  0  0  0  0  0
   26.6084   27.9357   74.7541 F   0  0  0  0  0  0
   27.3406   26.1254   73.7640 F   0  0  0  0  0  0
   24.9716   26.3228   74.0267 C   0  0  0  0  0  0
   24.1302   25.2746   74.4823 C   0  0  0  0  0  0
   24.5454   24.4762   75.4491 O   0  0  0  0  0  0
   25.4374   23.4728   74.9927 C   0  0  0  0  0  0
   22.8603   25.0996   73.8901 C   0  0  0  0  0  0
   22.4253   25.9460   72.8640 C   0  0  0  0  0  0
   23.2587   26.9862   72.4074 C   0  0  0  0  0  0
   22.8078   27.8339   71.3686 C   0  0  0  0  0  0
   23.6387   28.8714   70.9147 C   0  0  0  0  0  0
   24.9005   29.0660   71.4811 C   0  0  0  0  0  0
   25.3421   28.2245   72.5098 C   0  0  0  0  0  0
   24.5289   27.1781   72.9831 C   0  0  0  0  0  0
   21.4601   27.6964   70.7004 C   0  0  0  0  0  0
   21.2696   26.5889   69.4068 S   0  0  0  0  0  0
   20.4322   28.4273   71.1346 N   0  0  0  0  0  0
   20.5938   29.2826   72.3051 C   0  0  0  0  0  0
   19.1297   28.3828   70.4779 C   0  0  0  0  0  0
   18.5200   26.9712   70.5239 C   0  0  0  0  0  0
   18.3911   26.2950   69.5374 O   0  0  0  0  0  0
   18.1504   26.5453   71.7369 O   0  0  0  0  0  0
   18.3277   27.0710   72.4921 H   0  0  0  0  0  0
  1  2  1  0  0  0
  1  3  1  0  0  0
  1  4  1  0  0  0
  1  5  1  0  0  0
  5  6  2  0  0  0
  5 16  1  0  0  0
  6  7  1  0  0  0
  6  9  1  0  0  0
  7  8  1  0  0  0
  9 10  2  0  0  0
 10 11  1  0  0  0
 11 12  2  0  0  0
 11 16  1  0  0  0
 12 13  1  0  0  0
 12 17  1  0  0  0
 13 14  2  0  0  0
 14 15  1  0  0  0
 15 16  2  0  0  0
 17 18  2  0  0  0
 17 19  1  0  0  0
 19 20  1  0  0  0
 19 21  1  0  0  0
 21 22  1  0  0  0
 22 23  2  0  0  0
 22 24  1  0  0  0
 24 25  1  0  0  0
M  END
>  <CHROM.0>
-52.36120573,-68.28723047,46.24565439,132.54421984,148.91012147,77.92256750
101.37507595,172.40071398,-61.18859492,-61.54190337,-67.93882432,-61.41326028
-60.50081437,-117.93835694

>  <CHROM.1>
-18.66858724,-79.44238827,-84.41970816,61.23695082,-111.27735341,-4.49526520
23.05824374,26.85024499,72.52062866,-0.47055027,-0.38696432,-0.63866074

>  <FORMUL>
      TOL    C16 H14 F3 N1 O3 S1

>  <HET>
 TOL  A 320      24

>  <HETNAM>
     TOL TOLRESTAT

>  <Name>
TOL.pdb

>  <RI>
0

>  <Rbt.Current_Directory>
/home/malgorzata/Desktop/rDOCK_IFD/Wyniki/1_aldose_rductase

>  <Rbt.Executable>
rbdock ($Id: //depot/dev/client3/rdock/2013.1/src/exe/rbdock.cxx#4 $)

>  <Rbt.Library>
libRbt.so (2013.1, Build901 2013/11/27)

>  <Rbt.Parameter_File>
/home/malgorzata/Desktop/rDock_2013.1_src/data/scripts/soft_docking.prm

>  <Rbt.Receptor>
cavity.prm

>  <SCORE>
-37.7811

>  <SCORE.INTER>
-29.1282

>  <SCORE.INTER.CONST>
1

>  <SCORE.INTER.POLAR>
-1.32408

>  <SCORE.INTER.REPUL>
0

>  <SCORE.INTER.ROT>
5

>  <SCORE.INTER.VDW>
-35.0263

>  <SCORE.INTER.norm>
-1.21367

>  <SCORE.INTRA>
-5.15734

>  <SCORE.INTRA.DIHEDRAL>
4.97082

>  <SCORE.INTRA.DIHEDRAL.0>
16.9783

>  <SCORE.INTRA.POLAR>
0

>  <SCORE.INTRA.POLAR.0>
0

>  <SCORE.INTRA.REPUL>
0

>  <SCORE.INTRA.REPUL.0>
0

>  <SCORE.INTRA.VDW>
-6.15151

>  <SCORE.INTRA.VDW.0>
4.87734

>  <SCORE.INTRA.norm>
-0.214889

>  <SCORE.RESTR>
3.36483

>  <SCORE.RESTR.CAVITY>
0.672966

>  <SCORE.RESTR.norm>
0.140201

>  <SCORE.SYSTEM>
-6.86042

>  <SCORE.SYSTEM.CONST>
0

>  <SCORE.SYSTEM.DIHEDRAL>
12.8831

>  <SCORE.SYSTEM.POLAR>
-3.47641

>  <SCORE.SYSTEM.REPUL>
1.16943

>  <SCORE.SYSTEM.VDW>
-7.32934

>  <SCORE.SYSTEM.norm>
-0.285851

>  <SCORE.heavy>
24

>  <SCORE.norm>
-1.57421

$$$$
TOL.pdb
  rDOCK(R)          3D
libRbt.so/2013.1/901 2013/11/27
 25 26  0  0  0  0  0  0  0  0999 V2000
   15.8689   29.6861   65.4796 C   0  0  0  0  0  0
   14.7595   29.7957   66.2529 F   0  0  0  0  0  0
   15.5250   28.9355   64.3996 F   0  0  0  0  0  0
   16.1888   30.9265   65.0235 F   0  0  0  0  0  0
   17.0487   29.0702   66.2625 C   0  0  0  0  0  0
   17.9678   28.1428   65.7063 C   0  0  0  0  0  0
   17.8340   27.7642   64.4481 O   0  0  0  0  0  0
   18.7593   28.3964   63.5790 C   0  0  0  0  0  0
   19.0117   27.6357   66.5109 C   0  0  0  0  0  0
   19.1483   28.0374   67.8445 C   0  0  0  0  0  0
   18.2364   28.9560   68.4009 C   0  0  0  0  0  0
   18.3845   29.3528   69.7505 C   0  0  0  0  0  0
   17.4758   30.2695   70.3042 C   0  0  0  0  0  0
   16.4326   30.7854   69.5319 C   0  0  0  0  0  0
   16.2905   30.3900   68.1959 C   0  0  0  0  0  0
   17.1879   29.4735   67.6170 C   0  0  0  0  0  0
   19.4817   28.8466   70.6570 C   0  0  0  0  0  0
   20.7930   29.8771   71.0503 S   0  0  0  0  0  0
   19.4090   27.6098   71.1515 N   0  0  0  0  0  0
   18.2304   26.7916   70.8881 C   0  0  0  0  0  0
   20.4770   27.0501   71.9737 C   0  0  0  0  0  0
   21.5882   26.4270   71.1115 C   0  0  0  0  0  0
   21.6280   26.5652   69.9173 O   0  0  0  0  0  0
   22.5104   25.7276   71.7822 O   0  0  0  0  0  0
   23.2151   25.3178   71.3203 H   0  0  0  0  0  0
  1  2  1  0  0  0
  1  3  1  0  0  0
  1  4  1  0  0  0
  1  5  1  0  0  0
  5  6  2  0  0  0
  5 16  1  0  0  0
  6  7  1  0  0  0
  6  9  1  0  0  0
  7  8  1  0  0  0
  9 10  2  0  0  0
 10 11  1  0  0  0
 11 12  2  0  0  0
 11 16  1  0  0  0
 12 13  1  0  0  0
 12 17  1  0  0  0
 13 14  2  0  0  0
 14 15  1  0  0  0
 15 16  2  0  0  0
 17 18  2  0  0  0
 17 19  1  0  0  0
 19 20  1  0  0  0
 19 21  1  0  0  0
 21 22  1  0  0  0
 22 23  2  0  0  0
 22 24  1  0  0  0
 24 25  1  0  0  0
M  END
>  <CHROM.0>
-68.60172246,58.08775709,-95.84853247,137.12346801,-28.79115637,-152.89166747
150.56851320,-104.26999268,-61.18859492,-61.54190337,-55.39343320,-61.41326028
-60.50081437,-86.35468355

>  <CHROM.1>
141.06773744,102.88186064,105.61582954,-85.30905092,9.35457088,179.79900316
18.41569878,28.65781676,68.27175601,2.43609669,0.69729208,-1.89870663

>  <FORMUL>
      TOL    C16 H14 F3 N1 O3 S1

>  <HET>
 TOL  A 320      24

>  <HETNAM>
     TOL TOLRESTAT

>  <Name>
TOL.pdb

>  <RI>
0

>  <Rbt.Current_Directory>
/home/malgorzata/Desktop/rDOCK_IFD/Wyniki/1_aldose_rductase

>  <Rbt.Executable>
rbdock ($Id: //depot/dev/client3/rdock/2013.1/src/exe/rbdock.cxx#4 $)

>  <Rbt.Library>
libRbt.so (2013.1, Build901 2013/11/27)

>  <Rbt.Parameter_File>
/home/malgorzata/Desktop/rDock_2013.1_src/data/scripts/soft_docking.prm

>  <Rbt.Receptor>
cavity.prm

>  <SCORE>
-44.634

>  <SCORE.INTER>
-29.4277

>  <SCORE.INTER.CONST>
1

>  <SCORE.INTER.POLAR>
-2.3344

>  <SCORE.INTER.REPUL>
0.00108656

>  <SCORE.INTER.ROT>
5

>  <SCORE.INTER.VDW>
-31.8962

>  <SCORE.INTER.norm>
-1.22616

>  <SCORE.INTRA>
-6.20251

>  <SCORE.INTRA.DIHEDRAL>
3.89024

>  <SCORE.INTRA.DIHEDRAL.0>
16.9783

>  <SCORE.INTRA.POLAR>
0

>  <SCORE.INTRA.POLAR.0>
0

>  <SCORE.INTRA.REPUL>
0

>  <SCORE.INTRA.REPUL.0>
0

>  <SCORE.INTRA.VDW>
-6.98056

>  <SCORE.INTRA.VDW.0>
4.87734

>  <SCORE.INTRA.norm>
-0.258438

>  <SCORE.RESTR>
0

>  <SCORE.RESTR.CAVITY>
0

>  <SCORE.RESTR.norm>
0

>  <SCORE.SYSTEM>
-9.00375

>  <SCORE.SYSTEM.CONST>
0

>  <SCORE.SYSTEM.DIHEDRAL>
14.6455

>  <SCORE.SYSTEM.POLAR>
-4.04684

>  <SCORE.SYSTEM.REPUL>
1.16943

>  <SCORE.SYSTEM.VDW>
-8.41441

>  <SCORE.SYSTEM.norm>
-0.375156

>  <SCORE.heavy>
24

>  <SCORE.norm>
-1.85975

$$$$
TOL.pdb
  rDOCK(R)          3D
libRbt.so/2013.1/901 2013/11/27
 25 26  0  0  0  0  0  0  0  0999 V2000
   21.7096   28.4764   70.1076 C   0  0  0  0  0  0
   21.3053   29.6246   70.7068 F   0  0  0  0  0  0
   20.7375   28.1288   69.2232 F   0  0  0  0  0  0
   22.8309   28.7487   69.3883 F   0  0  0  0  0  0
   21.9800   27.3611   71.1407 C   0  0  0  0  0  0
   21.1019   26.2711   71.3749 C   0  0  0  0  0  0
   19.9795   26.1758   70.6853 O   0  0  0  0  0  0
   18.8729   26.7676   71.3457 C   0  0  0  0  0  0
   21.4420   25.3049   72.3470 C   0  0  0  0  0  0
   22.6309   25.4110   73.0775 C   0  0  0  0  0  0
   23.5040   26.4930   72.8496 C   0  0  0  0  0  0
   24.7020   26.5895   73.5956 C   0  0  0  0  0  0
   25.5725   27.6678   73.3670 C   0  0  0  0  0  0
   25.2601   28.6390   72.4131 C   0  0  0  0  0  0
   24.0732   28.5386   71.6765 C   0  0  0  0  0  0
   23.1843   27.4679   71.8857 C   0  0  0  0  0  0
   25.1187   25.5860   74.6449 C   0  0  0  0  0  0
   25.6589   24.0340   74.1596 S   0  0  0  0  0  0
   25.0749   25.9249   75.9343 N   0  0  0  0  0  0
   24.7139   27.2862   76.3144 C   0  0  0  0  0  0
   25.3994   24.9693   76.9885 C   0  0  0  0  0  0
   24.1338   24.4533   77.6945 C   0  0  0  0  0  0
   23.0560   24.4518   77.1604 O   0  0  0  0  0  0
   24.3162   24.0001   78.9398 O   0  0  0  0  0  0
   23.6040   23.6057   79.4038 H   0  0  0  0  0  0
  1  2  1  0  0  0
  1  3  1  0  0  0
  1  4  1  0  0  0
  1  5  1  0  0  0
  5  6  2  0  0  0
  5 16  1  0  0  0
  6  7  1  0  0  0
  6  9  1  0  0  0
  7  8  1  0  0  0
  9 10  2  0  0  0
 10 11  1  0  0  0
 11 12  2  0  0  0
 11 16  1  0  0  0
 12 13  1  0  0  0
 12 17  1  0  0  0
 13 14  2  0  0  0
 14 15  1  0  0  0
 15 16  2  0  0  0
 17 18  2  0  0  0
 17 19  1  0  0  0
 19 20  1  0  0  0
 19 21  1  0  0  0
 21 22  1  0  0  0
 22 23  2  0  0  0
 22 24  1  0  0  0
 24 25  1  0  0  0
M  END
>  <CHROM.0>
49.04906956,-170.76485012,121.20353248,-176.16221731,-67.75266025,63.64123320
120.36901959,-162.50640642,-61.18859492,-61.54190337,-132.29363703,-61.41326028
-60.50081437,-66.62831525

>  <CHROM.1>
104.07247326,-93.30547431,72.56660326,-104.05621937,24.45133578,-174.94758215
23.21423153,26.52140759,73.19644270,-2.05317782,0.34775284,2.21064074

>  <FORMUL>
      TOL    C16 H14 F3 N1 O3 S1

>  <HET>
 TOL  A 320      24

>  <HETNAM>
     TOL TOLRESTAT

>  <Name>
TOL.pdb

>  <RI>
0

>  <Rbt.Current_Directory>
/home/malgorzata/Desktop/rDOCK_IFD/Wyniki/1_aldose_rductase

>  <Rbt.Executable>
rbdock ($Id: //depot/dev/client3/rdock/2013.1/src/exe/rbdock.cxx#4 $)

>  <Rbt.Library>
libRbt.so (2013.1, Build901 2013/11/27)

>  <Rbt.Parameter_File>
/home/malgorzata/Desktop/rDock_2013.1_src/data/scripts/soft_docking.prm

>  <Rbt.Receptor>
cavity.prm

>  <SCORE>
-36.1458

>  <SCORE.INTER>
-22.7126

>  <SCORE.INTER.CONST>
1

>  <SCORE.INTER.POLAR>
-1.24793

>  <SCORE.INTER.REPUL>
0.216339

>  <SCORE.INTER.ROT>
5

>  <SCORE.INTER.VDW>
-29.9513

>  <SCORE.INTER.norm>
-0.946358

>  <SCORE.INTRA>
-5.76915

>  <SCORE.INTRA.DIHEDRAL>
3.99328

>  <SCORE.INTRA.DIHEDRAL.0>
16.9783

>  <SCORE.INTRA.POLAR>
0

>  <SCORE.INTRA.POLAR.0>
0

>  <SCORE.INTRA.REPUL>
0

>  <SCORE.INTRA.REPUL.0>
0

>  <SCORE.INTRA.VDW>
-6.56781

>  <SCORE.INTRA.VDW.0>
4.87734

>  <SCORE.INTRA.norm>
-0.240381

>  <SCORE.RESTR>
1.15744

>  <SCORE.RESTR.CAVITY>
0.231488

>  <SCORE.RESTR.norm>
0.0482267

>  <SCORE.SYSTEM>
-8.82156

>  <SCORE.SYSTEM.CONST>
0

>  <SCORE.SYSTEM.DIHEDRAL>
11.9

>  <SCORE.SYSTEM.POLAR>
-3.89088

>  <SCORE.SYSTEM.REPUL>
1.16943

>  <SCORE.SYSTEM.VDW>
-7.38974

>  <SCORE.SYSTEM.norm>
-0.367565

>  <SCORE.heavy>
24

>  <SCORE.norm>
-1.50608

$$$$
TOL.pdb
  rDOCK(R)          3D
libRbt.so/2013.1/901 2013/11/27
 25 26  0  0  0  0  0  0  0  0999 V2000
   15.5915   30.3818   65.8325 C   0  0  0  0  0  0
   15.7225   31.7264   65.9573 F   0  0  0  0  0  0
   14.4768   30.0275   66.5254 F   0  0  0  0  0  0
   15.3587   30.1009   64.5227 F   0  0  0  0  0  0
   16.8482   29.6393   66.3361 C   0  0  0  0  0  0
   17.9563   29.3125   65.5120 C   0  0  0  0  0  0
   17.9433   29.6493   64.2350 O   0  0  0  0  0  0
   17.7584   28.5392   63.3722 C   0  0  0  0  0  0
   19.0569   28.6272   66.0717 C   0  0  0  0  0  0
   19.0655   28.2697   67.4247 C   0  0  0  0  0  0
   17.9662   28.5902   68.2455 C   0  0  0  0  0  0
   17.9867   28.2219   69.6112 C   0  0  0  0  0  0
   16.8909   28.5428   70.4291 C   0  0  0  0  0  0
   15.7883   29.2183   69.9012 C   0  0  0  0  0  0
   15.7730   29.5814   68.5487 C   0  0  0  0  0  0
   16.8583   29.2723   67.7079 C   0  0  0  0  0  0
   19.1360   27.4913   70.2647 C   0  0  0  0  0  0
   19.3414   25.8146   69.9775 S   0  0  0  0  0  0
   19.9844   28.1626   71.0450 N   0  0  0  0  0  0
   19.8501   29.6082   71.1871 C   0  0  0  0  0  0
   21.0678   27.4898   71.7546 C   0  0  0  0  0  0
   22.1635   27.0068   70.7889 C   0  0  0  0  0  0
   22.1308   27.2445   69.6102 O   0  0  0  0  0  0
   23.1579   26.3112   71.3516 O   0  0  0  0  0  0
   23.1077   25.3767   71.3988 H   0  0  0  0  0  0
  1  2  1  0  0  0
  1  3  1  0  0  0
  1  4  1  0  0  0
  1  5  1  0  0  0
  5  6  2  0  0  0
  5 16  1  0  0  0
  6  7  1  0  0  0
  6  9  1  0  0  0
  7  8  1  0  0  0
  9 10  2  0  0  0
 10 11  1  0  0  0
 11 12  2  0  0  0
 11 16  1  0  0  0
 12 13  1  0  0  0
 12 17  1  0  0  0
 13 14  2  0  0  0
 14 15  1  0  0  0
 15 16  2  0  0  0
 17 18  2  0  0  0
 17 19  1  0  0  0
 19 20  1  0  0  0
 19 21  1  0  0  0
 21 22  1  0  0  0
 22 23  2  0  0  0
 22 24  1  0  0  0
 24 25  1  0  0  0
M  END
>  <CHROM.0>
74.20968431,-42.62122232,-81.29008013,-17.10546054,-56.95190314,70.57410191
118.19690906,-119.72574992,-61.18859492,-61.54190337,-143.29044503,-61.41326028
-60.50081437,68.53512908

>  <CHROM.1>
-90.09750670,-107.36096979,-75.75724443,70.41681168,4.01948637,92.12242956
18.25741472,28.60851319,68.17142650,2.34661542,0.45116615,-1.46329226

>  <FORMUL>
      TOL    C16 H14 F3 N1 O3 S1

>  <HET>
 TOL  A 320      24

>  <HETNAM>
     TOL TOLRESTAT

>  <Name>
TOL.pdb

>  <RI>
0

>  <Rbt.Current_Directory>
/home/malgorzata/Desktop/rDOCK_IFD/Wyniki/1_aldose_rductase

>  <Rbt.Executable>
rbdock ($Id: //depot/dev/client3/rdock/2013.1/src/exe/rbdock.cxx#4 $)

>  <Rbt.Library>
libRbt.so (2013.1, Build901 2013/11/27)

>  <Rbt.Parameter_File>
/home/malgorzata/Desktop/rDock_2013.1_src/data/scripts/soft_docking.prm

>  <Rbt.Receptor>
cavity.prm

>  <SCORE>
-49.9575

>  <SCORE.INTER>
-41.9215

>  <SCORE.INTER.CONST>
1

>  <SCORE.INTER.POLAR>
-4.01052

>  <SCORE.INTER.REPUL>
0

>  <SCORE.INTER.ROT>
5

>  <SCORE.INTER.VDW>
-38.6857

>  <SCORE.INTER.norm>
-1.74673

>  <SCORE.INTRA>
0.10926

>  <SCORE.INTRA.DIHEDRAL>
27.1002

>  <SCORE.INTRA.DIHEDRAL.0>
16.9783

>  <SCORE.INTRA.POLAR>
0

>  <SCORE.INTRA.POLAR.0>
0

>  <SCORE.INTRA.REPUL>
0

>  <SCORE.INTRA.REPUL.0>
0

>  <SCORE.INTRA.VDW>
-5.31078

>  <SCORE.INTRA.VDW.0>
4.87734

>  <SCORE.INTRA.norm>
0.0045525

>  <SCORE.RESTR>
0

>  <SCORE.RESTR.CAVITY>
0

>  <SCORE.RESTR.norm>
0

>  <SCORE.SYSTEM>
-8.14529

>  <SCORE.SYSTEM.CONST>
0

>  <SCORE.SYSTEM.DIHEDRAL>
13.3211

>  <SCORE.SYSTEM.POLAR>
-3.61784

>  <SCORE.SYSTEM.REPUL>
1.16943

>  <SCORE.SYSTEM.VDW>
-8.35235

>  <SCORE.SYSTEM.norm>
-0.339387

>  <SCORE.heavy>
24

>  <SCORE.norm>
-2.08156

$$$$
