FLP.pdb
  rDOCK(R)          3D
libRbt.so/2013.1/901 2013/11/27
 19 20  0  0  0  0  0  0  0  0999 V2000
   24.2034   23.3618   10.2903 C   0  0  0  0  0  0
   23.9335   22.6641   11.4883 C   0  0  0  0  0  0
   24.3843   23.1696   12.7035 C   0  0  0  0  0  0
   25.1014   24.3672   12.7192 C   0  0  0  0  0  0
   25.3657   25.0575   11.5207 C   0  0  0  0  0  0
   24.9139   24.5493   10.3071 C   0  0  0  0  0  0
   24.1338   22.4190   13.9939 C   0  0  0  0  0  0
   22.9908   22.6791   14.7883 C   0  0  0  0  0  0
   22.7753   21.9366   15.9893 C   0  0  0  0  0  0
   23.7273   20.9311   16.3757 C   0  0  0  0  0  0
   24.8398   20.6841   15.5805 C   0  0  0  0  0  0
   25.0539   21.4135   14.4068 C   0  0  0  0  0  0
   23.5979   20.1878   17.6894 C   0  0  0  0  0  0
   24.0877   18.7490   17.5432 C   0  0  0  0  0  0
   22.1259   20.2076   18.0996 C   0  0  0  0  0  0
   21.2875   19.7210   17.3816 O   0  0  0  0  0  0
   21.7524   20.7774   19.2148 O   0  0  0  0  0  0
   26.1666   21.1601   13.6678 F   0  0  0  0  0  0
   22.3278   20.7815   19.9543 H   0  0  0  0  0  0
  1  2  2  0  0  0
  2  3  1  0  0  0
  3  7  1  0  0  0
  4  3  2  0  0  0
  5  4  1  0  0  0
  6  5  2  0  0  0
  6  1  1  0  0  0
  7  8  2  0  0  0
  7 12  1  0  0  0
  8  9  1  0  0  0
  9 10  2  0  0  0
 10 13  1  0  0  0
 11 10  1  0  0  0
 12 11  2  0  0  0
 13 14  1  0  0  0
 15 17  1  0  0  0
 15 13  1  0  0  0
 16 15  2  0  0  0
 17 19  1  0  0  0
 18 12  1  0  0  0
M  END
>  <CHROM.0>
39.00932087,-63.72706076,-71.96755143,-57.44292816,-8.74282829,-60.19262565
53.67304688

>  <CHROM.1>
-92.28240291,145.98496099,-31.59624671,59.68746094,23.90560558,21.80782749
14.75435915,1.23135354,0.51580037,-0.87904492

>  <FORMUL>
      FLP    C15 H13 F1 O2

>  <HET>
 FLP  A 701      18

>  <HETNAM>
     FLP FLURBIPROFEN

>  <Name>
FLP.pdb

>  <RI>
0

>  <Rbt.Current_Directory>
/home/malgorzata/Desktop/rDOCK_IFD/Wyniki/4a_COX2

>  <Rbt.Executable>
rbdock ($Id: //depot/dev/client3/rdock/2013.1/src/exe/rbdock.cxx#4 $)

>  <Rbt.Library>
libRbt.so (2013.1, Build901 2013/11/27)

>  <Rbt.Parameter_File>
/home/malgorzata/Desktop/rDock_2013.1_src/data/scripts/soft_docking.prm

>  <Rbt.Receptor>
cavity.prm

>  <SCORE>
-29.9851

>  <SCORE.INTER>
-22.6851

>  <SCORE.INTER.CONST>
1

>  <SCORE.INTER.POLAR>
-0.746862

>  <SCORE.INTER.REPUL>
0

>  <SCORE.INTER.ROT>
3

>  <SCORE.INTER.VDW>
-28.5458

>  <SCORE.INTER.norm>
-1.26028

>  <SCORE.INTRA>
1.96605

>  <SCORE.INTRA.DIHEDRAL>
8.63768

>  <SCORE.INTRA.DIHEDRAL.0>
5.47211

>  <SCORE.INTRA.POLAR>
0

>  <SCORE.INTRA.POLAR.0>
0

>  <SCORE.INTRA.REPUL>
0

>  <SCORE.INTRA.REPUL.0>
0

>  <SCORE.INTRA.VDW>
0.238517

>  <SCORE.INTRA.VDW.0>
0.722234

>  <SCORE.INTRA.norm>
0.109225

>  <SCORE.RESTR>
0

>  <SCORE.RESTR.CAVITY>
0

>  <SCORE.RESTR.norm>
0

>  <SCORE.SYSTEM>
-9.26602

>  <SCORE.SYSTEM.CONST>
0

>  <SCORE.SYSTEM.DIHEDRAL>
7.05549

>  <SCORE.SYSTEM.POLAR>
-3.01406

>  <SCORE.SYSTEM.REPUL>
0.64611

>  <SCORE.SYSTEM.VDW>
-5.7765

>  <SCORE.SYSTEM.norm>
-0.514779

>  <SCORE.heavy>
18

>  <SCORE.norm>
-1.66584

$$$$
FLP.pdb
  rDOCK(R)          3D
libRbt.so/2013.1/901 2013/11/27
 19 20  0  0  0  0  0  0  0  0999 V2000
   31.1054   20.0074   19.8146 C   0  0  0  0  0  0
   29.8151   19.7592   19.2965 C   0  0  0  0  0  0
   28.9510   20.8203   19.0462 C   0  0  0  0  0  0
   29.3763   22.1229   19.3131 C   0  0  0  0  0  0
   30.6645   22.3623   19.8287 C   0  0  0  0  0  0
   31.5263   21.2992   20.0783 C   0  0  0  0  0  0
   27.5525   20.5717   18.5227 C   0  0  0  0  0  0
   27.3212   19.7280   17.4093 C   0  0  0  0  0  0
   25.9863   19.4990   16.9555 C   0  0  0  0  0  0
   24.8920   20.1321   17.6397 C   0  0  0  0  0  0
   25.1367   20.9515   18.7350 C   0  0  0  0  0  0
   26.4436   21.1797   19.1773 C   0  0  0  0  0  0
   23.4687   20.0028   17.1371 C   0  0  0  0  0  0
   22.7129   21.3170   17.3191 C   0  0  0  0  0  0
   22.7887   18.8863   17.9286 C   0  0  0  0  0  0
   21.6138   18.6601   17.7751 O   0  0  0  0  0  0
   23.4606   18.1842   18.8023 O   0  0  0  0  0  0
   26.6449   22.0070   20.2373 F   0  0  0  0  0  0
   23.2172   17.2963   18.9768 H   0  0  0  0  0  0
  1  2  2  0  0  0
  2  3  1  0  0  0
  3  7  1  0  0  0
  4  3  2  0  0  0
  5  4  1  0  0  0
  6  5  2  0  0  0
  6  1  1  0  0  0
  7  8  2  0  0  0
  7 12  1  0  0  0
  8  9  1  0  0  0
  9 10  2  0  0  0
 10 13  1  0  0  0
 11 10  1  0  0  0
 12 11  2  0  0  0
 13 14  1  0  0  0
 15 17  1  0  0  0
 15 13  1  0  0  0
 16 15  2  0  0  0
 17 19  1  0  0  0
 18 12  1  0  0  0
M  END
>  <CHROM.0>
113.72832877,171.79081772,-41.83410140,145.20830930,-52.54280480,-67.86851964
51.35779779

>  <CHROM.1>
-49.41936658,-141.94413986,-150.65296089,174.57167305,26.50087730,20.40300185
18.63782213,-0.29072967,0.17214843,-2.84355257

>  <FORMUL>
      FLP    C15 H13 F1 O2

>  <HET>
 FLP  A 701      18

>  <HETNAM>
     FLP FLURBIPROFEN

>  <Name>
FLP.pdb

>  <RI>
0

>  <Rbt.Current_Directory>
/home/malgorzata/Desktop/rDOCK_IFD/Wyniki/4a_COX2

>  <Rbt.Executable>
rbdock ($Id: //depot/dev/client3/rdock/2013.1/src/exe/rbdock.cxx#4 $)

>  <Rbt.Library>
libRbt.so (2013.1, Build901 2013/11/27)

>  <Rbt.Parameter_File>
/home/malgorzata/Desktop/rDock_2013.1_src/data/scripts/soft_docking.prm

>  <Rbt.Receptor>
cavity.prm

>  <SCORE>
-24.1702

>  <SCORE.INTER>
-19.7119

>  <SCORE.INTER.CONST>
1

>  <SCORE.INTER.POLAR>
-0.750298

>  <SCORE.INTER.REPUL>
0

>  <SCORE.INTER.ROT>
3

>  <SCORE.INTER.VDW>
-25.5609

>  <SCORE.INTER.norm>
-1.09511

>  <SCORE.INTRA>
1.80227

>  <SCORE.INTRA.DIHEDRAL>
6.17653

>  <SCORE.INTRA.DIHEDRAL.0>
5.47211

>  <SCORE.INTRA.POLAR>
0

>  <SCORE.INTRA.POLAR.0>
0

>  <SCORE.INTRA.REPUL>
0

>  <SCORE.INTRA.REPUL.0>
0

>  <SCORE.INTRA.VDW>
0.566966

>  <SCORE.INTRA.VDW.0>
0.722234

>  <SCORE.INTRA.norm>
0.100126

>  <SCORE.RESTR>
0

>  <SCORE.RESTR.CAVITY>
0

>  <SCORE.RESTR.norm>
0

>  <SCORE.SYSTEM>
-6.26049

>  <SCORE.SYSTEM.CONST>
0

>  <SCORE.SYSTEM.DIHEDRAL>
10.813

>  <SCORE.SYSTEM.POLAR>
-2.70896

>  <SCORE.SYSTEM.REPUL>
0.64611

>  <SCORE.SYSTEM.VDW>
-5.68705

>  <SCORE.SYSTEM.norm>
-0.347805

>  <SCORE.heavy>
18

>  <SCORE.norm>
-1.34279

$$$$
FLP.pdb
  rDOCK(R)          3D
libRbt.so/2013.1/901 2013/11/27
 19 20  0  0  0  0  0  0  0  0999 V2000
   18.8494   23.4431   18.2201 C   0  0  0  0  0  0
   20.0210   22.6644   18.3458 C   0  0  0  0  0  0
   20.3547   21.7465   17.3551 C   0  0  0  0  0  0
   19.5200   21.6089   16.2446 C   0  0  0  0  0  0
   18.3541   22.3895   16.1261 C   0  0  0  0  0  0
   18.0229   23.3063   17.1185 C   0  0  0  0  0  0
   21.5883   20.8793   17.4884 C   0  0  0  0  0  0
   22.6060   20.8885   16.5038 C   0  0  0  0  0  0
   23.7665   20.0731   16.6727 C   0  0  0  0  0  0
   23.8844   19.2508   17.8459 C   0  0  0  0  0  0
   22.8793   19.2594   18.8055 C   0  0  0  0  0  0
   21.7407   20.0541   18.6389 C   0  0  0  0  0  0
   25.0453   18.2939   18.0233 C   0  0  0  0  0  0
   26.3753   19.0340   17.9022 C   0  0  0  0  0  0
   24.9378   17.2169   16.9444 C   0  0  0  0  0  0
   25.5923   17.2998   15.9345 O   0  0  0  0  0  0
   24.1155   16.2112   17.0862 O   0  0  0  0  0  0
   20.7675   20.0172   19.5876 F   0  0  0  0  0  0
   24.0505   15.5609   16.4147 H   0  0  0  0  0  0
  1  2  2  0  0  0
  2  3  1  0  0  0
  3  7  1  0  0  0
  4  3  2  0  0  0
  5  4  1  0  0  0
  6  5  2  0  0  0
  6  1  1  0  0  0
  7  8  2  0  0  0
  7 12  1  0  0  0
  8  9  1  0  0  0
  9 10  2  0  0  0
 10 13  1  0  0  0
 11 10  1  0  0  0
 12 11  2  0  0  0
 13 14  1  0  0  0
 15 17  1  0  0  0
 15 13  1  0  0  0
 16 15  2  0  0  0
 17 19  1  0  0  0
 18 12  1  0  0  0
M  END
>  <CHROM.0>
18.23398991,-53.76499919,42.74405478,-74.64304960,170.81268503,-68.35647259
-82.59884849

>  <CHROM.1>
-122.76715162,55.44475066,179.35936869,98.30785125,22.20275175,20.09229080
17.51426124,-3.12503456,0.67489782,-1.54432077

>  <FORMUL>
      FLP    C15 H13 F1 O2

>  <HET>
 FLP  A 701      18

>  <HETNAM>
     FLP FLURBIPROFEN

>  <Name>
FLP.pdb

>  <RI>
0

>  <Rbt.Current_Directory>
/home/malgorzata/Desktop/rDOCK_IFD/Wyniki/4a_COX2

>  <Rbt.Executable>
rbdock ($Id: //depot/dev/client3/rdock/2013.1/src/exe/rbdock.cxx#4 $)

>  <Rbt.Library>
libRbt.so (2013.1, Build901 2013/11/27)

>  <Rbt.Parameter_File>
/home/malgorzata/Desktop/rDock_2013.1_src/data/scripts/soft_docking.prm

>  <Rbt.Receptor>
cavity.prm

>  <SCORE>
-34.3453

>  <SCORE.INTER>
-25.4726

>  <SCORE.INTER.CONST>
1

>  <SCORE.INTER.POLAR>
-2.98741

>  <SCORE.INTER.REPUL>
0.0318488

>  <SCORE.INTER.ROT>
3

>  <SCORE.INTER.VDW>
-23.8747

>  <SCORE.INTER.norm>
-1.41515

>  <SCORE.INTRA>
-0.81429

>  <SCORE.INTRA.DIHEDRAL>
-0.0296798

>  <SCORE.INTRA.DIHEDRAL.0>
5.47211

>  <SCORE.INTRA.POLAR>
0

>  <SCORE.INTRA.POLAR.0>
0

>  <SCORE.INTRA.REPUL>
0

>  <SCORE.INTRA.REPUL.0>
0

>  <SCORE.INTRA.VDW>
-0.808354

>  <SCORE.INTRA.VDW.0>
0.722234

>  <SCORE.INTRA.norm>
-0.0452383

>  <SCORE.RESTR>
0.0115345

>  <SCORE.RESTR.CAVITY>
0.0115345

>  <SCORE.RESTR.norm>
0.000640808

>  <SCORE.SYSTEM>
-8.06997

>  <SCORE.SYSTEM.CONST>
0

>  <SCORE.SYSTEM.DIHEDRAL>
5.84659

>  <SCORE.SYSTEM.POLAR>
-2.7905

>  <SCORE.SYSTEM.REPUL>
0.64611

>  <SCORE.SYSTEM.VDW>
-4.73611

>  <SCORE.SYSTEM.norm>
-0.448331

>  <SCORE.heavy>
18

>  <SCORE.norm>
-1.90807

$$$$
FLP.pdb
  rDOCK(R)          3D
libRbt.so/2013.1/901 2013/11/27
 19 20  0  0  0  0  0  0  0  0999 V2000
   24.0869   23.1107   10.2637 C   0  0  0  0  0  0
   23.7918   22.7364   11.5932 C   0  0  0  0  0  0
   24.6886   23.0342   12.6142 C   0  0  0  0  0  0
   25.8743   23.7033   12.3058 C   0  0  0  0  0  0
   26.1610   24.0740   10.9780 C   0  0  0  0  0  0
   25.2625   23.7745    9.9592 C   0  0  0  0  0  0
   24.4053   22.6115   14.0399 C   0  0  0  0  0  0
   23.0990   22.6762   14.5824 C   0  0  0  0  0  0
   22.8644   22.2489   15.9250 C   0  0  0  0  0  0
   23.9640   21.7571   16.7095 C   0  0  0  0  0  0
   25.2383   21.6939   16.1588 C   0  0  0  0  0  0
   25.4697   22.1161   14.8458 C   0  0  0  0  0  0
   23.7875   21.3875   18.1680 C   0  0  0  0  0  0
   25.1075   20.9032   18.7633 C   0  0  0  0  0  0
   22.7326   20.2848   18.2507 C   0  0  0  0  0  0
   22.6296   19.4734   17.3641 O   0  0  0  0  0  0
   21.9098   20.2243   19.2642 O   0  0  0  0  0  0
   26.7346   22.0619   14.3501 F   0  0  0  0  0  0
   21.1877   19.6275   19.2465 H   0  0  0  0  0  0
  1  2  2  0  0  0
  2  3  1  0  0  0
  3  7  1  0  0  0
  4  3  2  0  0  0
  5  4  1  0  0  0
  6  5  2  0  0  0
  6  1  1  0  0  0
  7  8  2  0  0  0
  7 12  1  0  0  0
  8  9  1  0  0  0
  9 10  2  0  0  0
 10 13  1  0  0  0
 11 10  1  0  0  0
 12 11  2  0  0  0
 13 14  1  0  0  0
 15 17  1  0  0  0
 15 13  1  0  0  0
 16 15  2  0  0  0
 17 19  1  0  0  0
 18 12  1  0  0  0
M  END
>  <CHROM.0>
-25.54211461,84.46770122,28.13136309,-179.37340691,-136.57780481,-57.50555770
58.02159909

>  <CHROM.1>
-39.08868953,-179.69936148,170.88654049,32.94615231,24.32655097,22.03075327
14.90159764,1.30471230,-0.18397541,-1.23305259

>  <FORMUL>
      FLP    C15 H13 F1 O2

>  <HET>
 FLP  A 701      18

>  <HETNAM>
     FLP FLURBIPROFEN

>  <Name>
FLP.pdb

>  <RI>
0

>  <Rbt.Current_Directory>
/home/malgorzata/Desktop/rDOCK_IFD/Wyniki/4a_COX2

>  <Rbt.Executable>
rbdock ($Id: //depot/dev/client3/rdock/2013.1/src/exe/rbdock.cxx#4 $)

>  <Rbt.Library>
libRbt.so (2013.1, Build901 2013/11/27)

>  <Rbt.Parameter_File>
/home/malgorzata/Desktop/rDock_2013.1_src/data/scripts/soft_docking.prm

>  <Rbt.Receptor>
cavity.prm

>  <SCORE>
-30.7503

>  <SCORE.INTER>
-23.9548

>  <SCORE.INTER.CONST>
1

>  <SCORE.INTER.POLAR>
-0.854998

>  <SCORE.INTER.REPUL>
0

>  <SCORE.INTER.ROT>
3

>  <SCORE.INTER.VDW>
-29.4478

>  <SCORE.INTER.norm>
-1.33082

>  <SCORE.INTRA>
2.33366

>  <SCORE.INTRA.DIHEDRAL>
-0.639416

>  <SCORE.INTRA.DIHEDRAL.0>
5.47211

>  <SCORE.INTRA.POLAR>
0

>  <SCORE.INTRA.POLAR.0>
0

>  <SCORE.INTRA.REPUL>
0

>  <SCORE.INTRA.REPUL.0>
0

>  <SCORE.INTRA.VDW>
2.46154

>  <SCORE.INTRA.VDW.0>
0.722234

>  <SCORE.INTRA.norm>
0.129648

>  <SCORE.RESTR>
0

>  <SCORE.RESTR.CAVITY>
0

>  <SCORE.RESTR.norm>
0

>  <SCORE.SYSTEM>
-9.12916

>  <SCORE.SYSTEM.CONST>
0

>  <SCORE.SYSTEM.DIHEDRAL>
7.13771

>  <SCORE.SYSTEM.POLAR>
-3.14355

>  <SCORE.SYSTEM.REPUL>
0.68603

>  <SCORE.SYSTEM.VDW>
-5.44009

>  <SCORE.SYSTEM.norm>
-0.507176

>  <SCORE.heavy>
18

>  <SCORE.norm>
-1.70835

$$$$
FLP.pdb
  rDOCK(R)          3D
libRbt.so/2013.1/901 2013/11/27
 19 20  0  0  0  0  0  0  0  0999 V2000
   25.4957   24.5502   11.5149 C   0  0  0  0  0  0
   25.4429   23.8423   12.7360 C   0  0  0  0  0  0
   24.3150   23.0939   13.0569 C   0  0  0  0  0  0
   23.2457   23.0543   12.1603 C   0  0  0  0  0  0
   23.3062   23.7621   10.9446 C   0  0  0  0  0  0
   24.4353   24.5099   10.6265 C   0  0  0  0  0  0
   24.2263   22.3557   14.3756 C   0  0  0  0  0  0
   25.2774   21.5199   14.8249 C   0  0  0  0  0  0
   25.1688   20.8555   16.0846 C   0  0  0  0  0  0
   23.9877   21.0461   16.8815 C   0  0  0  0  0  0
   22.9689   21.8754   16.4283 C   0  0  0  0  0  0
   23.0724   22.5230   15.1932 C   0  0  0  0  0  0
   23.7798   20.2862   18.1755 C   0  0  0  0  0  0
   24.8625   19.2247   18.3552 C   0  0  0  0  0  0
   22.3997   19.6320   18.1218 C   0  0  0  0  0  0
   21.5950   19.8363   18.9969 O   0  0  0  0  0  0
   22.0843   18.8206   17.1472 O   0  0  0  0  0  0
   22.0444   23.3070   14.7726 F   0  0  0  0  0  0
   21.1897   18.5773   17.0111 H   0  0  0  0  0  0
  1  2  2  0  0  0
  2  3  1  0  0  0
  3  7  1  0  0  0
  4  3  2  0  0  0
  5  4  1  0  0  0
  6  5  2  0  0  0
  6  1  1  0  0  0
  7  8  2  0  0  0
  7 12  1  0  0  0
  8  9  1  0  0  0
  9 10  2  0  0  0
 10 13  1  0  0  0
 11 10  1  0  0  0
 12 11  2  0  0  0
 13 14  1  0  0  0
 15 17  1  0  0  0
 15 13  1  0  0  0
 16 15  2  0  0  0
 17 19  1  0  0  0
 18 12  1  0  0  0
M  END
>  <CHROM.0>
-10.53359465,90.19730846,54.79845485,-166.66252334,162.51559173,-66.64064879
63.04976043

>  <CHROM.1>
-49.46145009,-7.68825530,-166.19894769,-124.95521258,23.67441252,21.83379968
15.11568454,-1.39231307,-0.08910583,2.17788241

>  <FORMUL>
      FLP    C15 H13 F1 O2

>  <HET>
 FLP  A 701      18

>  <HETNAM>
     FLP FLURBIPROFEN

>  <Name>
FLP.pdb

>  <RI>
0

>  <Rbt.Current_Directory>
/home/malgorzata/Desktop/rDOCK_IFD/Wyniki/4a_COX2

>  <Rbt.Executable>
rbdock ($Id: //depot/dev/client3/rdock/2013.1/src/exe/rbdock.cxx#4 $)

>  <Rbt.Library>
libRbt.so (2013.1, Build901 2013/11/27)

>  <Rbt.Parameter_File>
/home/malgorzata/Desktop/rDock_2013.1_src/data/scripts/soft_docking.prm

>  <Rbt.Receptor>
cavity.prm

>  <SCORE>
-30.0248

>  <SCORE.INTER>
-22.9656

>  <SCORE.INTER.CONST>
1

>  <SCORE.INTER.POLAR>
-1.52978

>  <SCORE.INTER.REPUL>
0.031558

>  <SCORE.INTER.ROT>
3

>  <SCORE.INTER.VDW>
-26.3222

>  <SCORE.INTER.norm>
-1.27587

>  <SCORE.INTRA>
0.740066

>  <SCORE.INTRA.DIHEDRAL>
0.265439

>  <SCORE.INTRA.DIHEDRAL.0>
5.47211

>  <SCORE.INTRA.POLAR>
0

>  <SCORE.INTRA.POLAR.0>
0

>  <SCORE.INTRA.REPUL>
0

>  <SCORE.INTRA.REPUL.0>
0

>  <SCORE.INTRA.VDW>
0.686978

>  <SCORE.INTRA.VDW.0>
0.722234

>  <SCORE.INTRA.norm>
0.0411148

>  <SCORE.RESTR>
0.194655

>  <SCORE.RESTR.CAVITY>
0.194655

>  <SCORE.RESTR.norm>
0.0108142

>  <SCORE.SYSTEM>
-7.99392

>  <SCORE.SYSTEM.CONST>
0

>  <SCORE.SYSTEM.DIHEDRAL>
8.00342

>  <SCORE.SYSTEM.POLAR>
-2.81129

>  <SCORE.SYSTEM.REPUL>
0.64611

>  <SCORE.SYSTEM.VDW>
-5.6678

>  <SCORE.SYSTEM.norm>
-0.444106

>  <SCORE.heavy>
18

>  <SCORE.norm>
-1.66805

$$$$
FLP.pdb
  rDOCK(R)          3D
libRbt.so/2013.1/901 2013/11/27
 19 20  0  0  0  0  0  0  0  0999 V2000
   18.2415   21.2431   19.5915 C   0  0  0  0  0  0
   19.4692   20.5697   19.4069 C   0  0  0  0  0  0
   20.3598   21.0039   18.4304 C   0  0  0  0  0  0
   20.0233   22.1065   17.6431 C   0  0  0  0  0  0
   18.7979   22.7732   17.8338 C   0  0  0  0  0  0
   17.9091   22.3364   18.8108 C   0  0  0  0  0  0
   21.6654   20.2746   18.1953 C   0  0  0  0  0  0
   21.7160   18.8620   18.1112 C   0  0  0  0  0  0
   22.9623   18.2081   17.8671 C   0  0  0  0  0  0
   24.1528   18.9984   17.7100 C   0  0  0  0  0  0
   24.0836   20.3840   17.7885 C   0  0  0  0  0  0
   22.8647   21.0248   18.0317 C   0  0  0  0  0  0
   25.5127   18.3501   17.5506 C   0  0  0  0  0  0
   26.0100   18.4905   16.1138 C   0  0  0  0  0  0
   25.3782   16.8741   17.9231 C   0  0  0  0  0  0
   25.9647   16.4321   18.8801 O   0  0  0  0  0  0
   24.6536   16.0664   17.1949 O   0  0  0  0  0  0
   22.8410   22.3809   18.1262 F   0  0  0  0  0  0
   24.4528   16.2889   16.3072 H   0  0  0  0  0  0
  1  2  2  0  0  0
  2  3  1  0  0  0
  3  7  1  0  0  0
  4  3  2  0  0  0
  5  4  1  0  0  0
  6  5  2  0  0  0
  6  1  1  0  0  0
  7  8  2  0  0  0
  7 12  1  0  0  0
  8  9  1  0  0  0
  9 10  2  0  0  0
 10 13  1  0  0  0
 11 10  1  0  0  0
 12 11  2  0  0  0
 13 14  1  0  0  0
 15 17  1  0  0  0
 15 13  1  0  0  0
 16 15  2  0  0  0
 17 19  1  0  0  0
 18 12  1  0  0  0
M  END
>  <CHROM.0>
13.25916212,96.13408592,-82.93841432,-116.18013182,-150.89042644,-46.98828894
38.14537447

>  <CHROM.1>
45.68361968,107.47968159,20.79542277,-115.54278933,22.47840481,19.75348232
18.04470574,2.55498008,0.30035260,-0.20043184

>  <FORMUL>
      FLP    C15 H13 F1 O2

>  <HET>
 FLP  A 701      18

>  <HETNAM>
     FLP FLURBIPROFEN

>  <Name>
FLP.pdb

>  <RI>
0

>  <Rbt.Current_Directory>
/home/malgorzata/Desktop/rDOCK_IFD/Wyniki/4a_COX2

>  <Rbt.Executable>
rbdock ($Id: //depot/dev/client3/rdock/2013.1/src/exe/rbdock.cxx#4 $)

>  <Rbt.Library>
libRbt.so (2013.1, Build901 2013/11/27)

>  <Rbt.Parameter_File>
/home/malgorzata/Desktop/rDock_2013.1_src/data/scripts/soft_docking.prm

>  <Rbt.Receptor>
cavity.prm

>  <SCORE>
-28.4777

>  <SCORE.INTER>
-23.2306

>  <SCORE.INTER.CONST>
1

>  <SCORE.INTER.POLAR>
-2.42213

>  <SCORE.INTER.REPUL>
0.198435

>  <SCORE.INTER.ROT>
3

>  <SCORE.INTER.VDW>
-24.3876

>  <SCORE.INTER.norm>
-1.29059

>  <SCORE.INTRA>
-0.150096

>  <SCORE.INTRA.DIHEDRAL>
1.6196

>  <SCORE.INTRA.DIHEDRAL.0>
5.47211

>  <SCORE.INTRA.POLAR>
0

>  <SCORE.INTRA.POLAR.0>
0

>  <SCORE.INTRA.REPUL>
0

>  <SCORE.INTRA.REPUL.0>
0

>  <SCORE.INTRA.VDW>
-0.474017

>  <SCORE.INTRA.VDW.0>
0.722234

>  <SCORE.INTRA.norm>
-0.00833869

>  <SCORE.RESTR>
0

>  <SCORE.RESTR.CAVITY>
0

>  <SCORE.RESTR.norm>
0

>  <SCORE.SYSTEM>
-5.09694

>  <SCORE.SYSTEM.CONST>
0

>  <SCORE.SYSTEM.DIHEDRAL>
14.1405

>  <SCORE.SYSTEM.POLAR>
-3.05988

>  <SCORE.SYSTEM.REPUL>
0.66786

>  <SCORE.SYSTEM.VDW>
-5.10289

>  <SCORE.SYSTEM.norm>
-0.283163

>  <SCORE.heavy>
18

>  <SCORE.norm>
-1.58209

$$$$
FLP.pdb
  rDOCK(R)          3D
libRbt.so/2013.1/901 2013/11/27
 19 20  0  0  0  0  0  0  0  0999 V2000
   27.3869   22.0612   16.5502 C   0  0  0  0  0  0
   26.0520   21.7190   16.8598 C   0  0  0  0  0  0
   25.0021   22.3522   16.2023 C   0  0  0  0  0  0
   25.2871   23.3225   15.2401 C   0  0  0  0  0  0
   26.6205   23.6575   14.9363 C   0  0  0  0  0  0
   27.6682   23.0230   15.5957 C   0  0  0  0  0  0
   23.5647   22.0229   16.5445 C   0  0  0  0  0  0
   22.5368   22.1121   15.5746 C   0  0  0  0  0  0
   21.1948   21.7732   15.9272 C   0  0  0  0  0  0
   20.9063   21.3444   17.2686 C   0  0  0  0  0  0
   21.9285   21.2558   18.2058 C   0  0  0  0  0  0
   23.2419   21.5916   17.8627 C   0  0  0  0  0  0
   19.4861   21.0712   17.7196 C   0  0  0  0  0  0
   18.7674   20.1717   16.7168 C   0  0  0  0  0  0
   18.7637   22.4124   17.8414 C   0  0  0  0  0  0
   17.7736   22.5106   18.5234 O   0  0  0  0  0  0
   19.1887   23.4602   17.1862 O   0  0  0  0  0  0
   24.2107   21.5157   18.8136 F   0  0  0  0  0  0
   18.7146   24.2670   17.2344 H   0  0  0  0  0  0
  1  2  2  0  0  0
  2  3  1  0  0  0
  3  7  1  0  0  0
  4  3  2  0  0  0
  5  4  1  0  0  0
  6  5  2  0  0  0
  6  1  1  0  0  0
  7  8  2  0  0  0
  7 12  1  0  0  0
  8  9  1  0  0  0
  9 10  2  0  0  0
 10 13  1  0  0  0
 11 10  1  0  0  0
 12 11  2  0  0  0
 13 14  1  0  0  0
 15 17  1  0  0  0
 15 13  1  0  0  0
 16 15  2  0  0  0
 17 19  1  0  0  0
 18 12  1  0  0  0
M  END
>  <CHROM.0>
19.97776397,177.97070847,-168.45846348,-10.44512393,44.87207754,-70.57191231
58.28213821

>  <CHROM.1>
-149.78099353,48.90205715,176.99315416,-159.13763083,22.64568194,22.08100765
16.93134902,-0.22117477,-0.03512677,2.17066037

>  <FORMUL>
      FLP    C15 H13 F1 O2

>  <HET>
 FLP  A 701      18

>  <HETNAM>
     FLP FLURBIPROFEN

>  <Name>
FLP.pdb

>  <RI>
0

>  <Rbt.Current_Directory>
/home/malgorzata/Desktop/rDOCK_IFD/Wyniki/4a_COX2

>  <Rbt.Executable>
rbdock ($Id: //depot/dev/client3/rdock/2013.1/src/exe/rbdock.cxx#4 $)

>  <Rbt.Library>
libRbt.so (2013.1, Build901 2013/11/27)

>  <Rbt.Parameter_File>
/home/malgorzata/Desktop/rDock_2013.1_src/data/scripts/soft_docking.prm

>  <Rbt.Receptor>
cavity.prm

>  <SCORE>
-28.9151

>  <SCORE.INTER>
-19.3132

>  <SCORE.INTER.CONST>
1

>  <SCORE.INTER.POLAR>
-0.904258

>  <SCORE.INTER.REPUL>
0.121609

>  <SCORE.INTER.ROT>
3

>  <SCORE.INTER.VDW>
-25.2468

>  <SCORE.INTER.norm>
-1.07295

>  <SCORE.INTRA>
-0.794985

>  <SCORE.INTRA.DIHEDRAL>
-1.42406

>  <SCORE.INTRA.DIHEDRAL.0>
5.47211

>  <SCORE.INTRA.POLAR>
0

>  <SCORE.INTRA.POLAR.0>
0

>  <SCORE.INTRA.REPUL>
0

>  <SCORE.INTRA.REPUL.0>
0

>  <SCORE.INTRA.VDW>
-0.510172

>  <SCORE.INTRA.VDW.0>
0.722234

>  <SCORE.INTRA.norm>
-0.0441658

>  <SCORE.RESTR>
0

>  <SCORE.RESTR.CAVITY>
0

>  <SCORE.RESTR.norm>
0

>  <SCORE.SYSTEM>
-8.80694

>  <SCORE.SYSTEM.CONST>
0

>  <SCORE.SYSTEM.DIHEDRAL>
3.98545

>  <SCORE.SYSTEM.POLAR>
-2.63995

>  <SCORE.SYSTEM.REPUL>
0.64611

>  <SCORE.SYSTEM.VDW>
-5.05439

>  <SCORE.SYSTEM.norm>
-0.489274

>  <SCORE.heavy>
18

>  <SCORE.norm>
-1.6064

$$$$
FLP.pdb
  rDOCK(R)          3D
libRbt.so/2013.1/901 2013/11/27
 19 20  0  0  0  0  0  0  0  0999 V2000
   25.7458   23.6863   11.7050 C   0  0  0  0  0  0
   25.1324   22.9431   12.7375 C   0  0  0  0  0  0
   25.6093   23.0398   14.0408 C   0  0  0  0  0  0
   26.6944   23.8761   14.3090 C   0  0  0  0  0  0
   27.3000   24.6146   13.2744 C   0  0  0  0  0  0
   26.8212   24.5156   11.9721 C   0  0  0  0  0  0
   24.9863   22.2254   15.1545 C   0  0  0  0  0  0
   25.1700   20.8237   15.2346 C   0  0  0  0  0  0
   24.5850   20.0900   16.3114 C   0  0  0  0  0  0
   23.8141   20.7894   17.3029 C   0  0  0  0  0  0
   23.6499   22.1664   17.2127 C   0  0  0  0  0  0
   24.2187   22.8849   16.1564 C   0  0  0  0  0  0
   23.0901   20.0456   18.4063 C   0  0  0  0  0  0
   23.5218   18.5814   18.4404 C   0  0  0  0  0  0
   21.5890   20.1496   18.1390 C   0  0  0  0  0  0
   21.0398   19.3426   17.4304 O   0  0  0  0  0  0
   20.8878   21.1284   18.6470 O   0  0  0  0  0  0
   24.0155   24.2276   16.0887 F   0  0  0  0  0  0
   19.9614   21.1611   18.5104 H   0  0  0  0  0  0
  1  2  2  0  0  0
  2  3  1  0  0  0
  3  7  1  0  0  0
  4  3  2  0  0  0
  5  4  1  0  0  0
  6  5  2  0  0  0
  6  1  1  0  0  0
  7  8  2  0  0  0
  7 12  1  0  0  0
  8  9  1  0  0  0
  9 10  2  0  0  0
 10 13  1  0  0  0
 11 10  1  0  0  0
 12 11  2  0  0  0
 13 14  1  0  0  0
 15 17  1  0  0  0
 15 13  1  0  0  0
 16 15  2  0  0  0
 17 19  1  0  0  0
 18 12  1  0  0  0
M  END
>  <CHROM.0>
169.97924953,-82.30113938,30.05437291,27.98096308,-170.27610080,-78.87154946
47.04749512

>  <CHROM.1>
71.13125780,10.70750834,-177.13781314,87.38851671,24.21768206,21.93720243
15.78938141,-0.72905654,-0.76715841,2.89254783

>  <FORMUL>
      FLP    C15 H13 F1 O2

>  <HET>
 FLP  A 701      18

>  <HETNAM>
     FLP FLURBIPROFEN

>  <Name>
FLP.pdb

>  <RI>
0

>  <Rbt.Current_Directory>
/home/malgorzata/Desktop/rDOCK_IFD/Wyniki/4a_COX2

>  <Rbt.Executable>
rbdock ($Id: //depot/dev/client3/rdock/2013.1/src/exe/rbdock.cxx#4 $)

>  <Rbt.Library>
libRbt.so (2013.1, Build901 2013/11/27)

>  <Rbt.Parameter_File>
/home/malgorzata/Desktop/rDock_2013.1_src/data/scripts/soft_docking.prm

>  <Rbt.Receptor>
cavity.prm

>  <SCORE>
-27.1371

>  <SCORE.INTER>
-21.1681

>  <SCORE.INTER.CONST>
1

>  <SCORE.INTER.POLAR>
-1.42835

>  <SCORE.INTER.REPUL>
0

>  <SCORE.INTER.ROT>
3

>  <SCORE.INTER.VDW>
-24.7117

>  <SCORE.INTER.norm>
-1.176

>  <SCORE.INTRA>
0.99273

>  <SCORE.INTRA.DIHEDRAL>
1.43133

>  <SCORE.INTRA.DIHEDRAL.0>
5.47211

>  <SCORE.INTRA.POLAR>
0

>  <SCORE.INTRA.POLAR.0>
0

>  <SCORE.INTRA.REPUL>
0

>  <SCORE.INTRA.REPUL.0>
0

>  <SCORE.INTRA.VDW>
0.706464

>  <SCORE.INTRA.VDW.0>
0.722234

>  <SCORE.INTRA.norm>
0.0551517

>  <SCORE.RESTR>
0.126329

>  <SCORE.RESTR.CAVITY>
0.126329

>  <SCORE.RESTR.norm>
0.00701828

>  <SCORE.SYSTEM>
-7.08808

>  <SCORE.SYSTEM.CONST>
0

>  <SCORE.SYSTEM.DIHEDRAL>
6.41005

>  <SCORE.SYSTEM.POLAR>
-2.5306

>  <SCORE.SYSTEM.REPUL>
0.817669

>  <SCORE.SYSTEM.VDW>
-5.77741

>  <SCORE.SYSTEM.norm>
-0.393782

>  <SCORE.heavy>
18

>  <SCORE.norm>
-1.50762

$$$$
FLP.pdb
  rDOCK(R)          3D
libRbt.so/2013.1/901 2013/11/27
 19 20  0  0  0  0  0  0  0  0999 V2000
   24.0122   23.5916   10.6767 C   0  0  0  0  0  0
   23.9938   22.8194   11.8592 C   0  0  0  0  0  0
   24.7092   23.2409   12.9754 C   0  0  0  0  0  0
   25.4389   24.4291   12.9082 C   0  0  0  0  0  0
   25.4516   25.1939   11.7261 C   0  0  0  0  0  0
   24.7356   24.7696   10.6114 C   0  0  0  0  0  0
   24.7287   22.4097   14.2405 C   0  0  0  0  0  0
   24.0497   22.8304   15.4097 C   0  0  0  0  0  0
   24.0718   22.0104   16.5790 C   0  0  0  0  0  0
   24.7869   20.7637   16.5511 C   0  0  0  0  0  0
   25.4418   20.3630   15.3928 C   0  0  0  0  0  0
   25.4244   21.1672   14.2489 C   0  0  0  0  0  0
   24.9253   19.9074   17.7931 C   0  0  0  0  0  0
   26.1844   20.2858   18.5693 C   0  0  0  0  0  0
   24.9933   18.4455   17.3528 C   0  0  0  0  0  0
   26.0315   17.8356   17.4262 O   0  0  0  0  0  0
   23.9397   17.8471   16.8634 O   0  0  0  0  0  0
   26.0973   20.7529   13.1425 F   0  0  0  0  0  0
   24.0204   16.9967   16.4784 H   0  0  0  0  0  0
  1  2  2  0  0  0
  2  3  1  0  0  0
  3  7  1  0  0  0
  4  3  2  0  0  0
  5  4  1  0  0  0
  6  5  2  0  0  0
  6  1  1  0  0  0
  7  8  2  0  0  0
  7 12  1  0  0  0
  8  9  1  0  0  0
  9 10  2  0  0  0
 10 13  1  0  0  0
 11 10  1  0  0  0
 12 11  2  0  0  0
 13 14  1  0  0  0
 15 17  1  0  0  0
 15 13  1  0  0  0
 16 15  2  0  0  0
 17 19  1  0  0  0
 18 12  1  0  0  0
M  END
>  <CHROM.0>
13.84940930,61.22794027,28.58932965,-35.38692605,-121.26145501,-69.36701087
-73.79836065

>  <CHROM.1>
-109.08993241,-90.17924874,170.82348829,108.35241954,24.98127902,21.45853216
14.73850697,-2.51571297,-1.50620274,1.34933487

>  <FORMUL>
      FLP    C15 H13 F1 O2

>  <HET>
 FLP  A 701      18

>  <HETNAM>
     FLP FLURBIPROFEN

>  <Name>
FLP.pdb

>  <RI>
0

>  <Rbt.Current_Directory>
/home/malgorzata/Desktop/rDOCK_IFD/Wyniki/4a_COX2

>  <Rbt.Executable>
rbdock ($Id: //depot/dev/client3/rdock/2013.1/src/exe/rbdock.cxx#4 $)

>  <Rbt.Library>
libRbt.so (2013.1, Build901 2013/11/27)

>  <Rbt.Parameter_File>
/home/malgorzata/Desktop/rDock_2013.1_src/data/scripts/soft_docking.prm

>  <Rbt.Receptor>
cavity.prm

>  <SCORE>
-31.5903

>  <SCORE.INTER>
-23.1497

>  <SCORE.INTER.CONST>
1

>  <SCORE.INTER.POLAR>
-1.72227

>  <SCORE.INTER.REPUL>
0.0152407

>  <SCORE.INTER.ROT>
3

>  <SCORE.INTER.VDW>
-25.7702

>  <SCORE.INTER.norm>
-1.28609

>  <SCORE.INTRA>
-0.0796955

>  <SCORE.INTRA.DIHEDRAL>
1.06735

>  <SCORE.INTRA.DIHEDRAL.0>
5.47211

>  <SCORE.INTRA.POLAR>
0

>  <SCORE.INTRA.POLAR.0>
0

>  <SCORE.INTRA.REPUL>
0

>  <SCORE.INTRA.REPUL.0>
0

>  <SCORE.INTRA.VDW>
-0.293165

>  <SCORE.INTRA.VDW.0>
0.722234

>  <SCORE.INTRA.norm>
-0.00442753

>  <SCORE.RESTR>
0.153847

>  <SCORE.RESTR.CAVITY>
0.153847

>  <SCORE.RESTR.norm>
0.00854706

>  <SCORE.SYSTEM>
-8.5148

>  <SCORE.SYSTEM.CONST>
0

>  <SCORE.SYSTEM.DIHEDRAL>
6.4221

>  <SCORE.SYSTEM.POLAR>
-2.96338

>  <SCORE.SYSTEM.REPUL>
0.675963

>  <SCORE.SYSTEM.VDW>
-5.03017

>  <SCORE.SYSTEM.norm>
-0.473045

>  <SCORE.heavy>
18

>  <SCORE.norm>
-1.75502

$$$$
FLP.pdb
  rDOCK(R)          3D
libRbt.so/2013.1/901 2013/11/27
 19 20  0  0  0  0  0  0  0  0999 V2000
   18.6248   22.9011   15.6071 C   0  0  0  0  0  0
   19.9835   22.6073   15.8573 C   0  0  0  0  0  0
   20.3684   22.1009   17.0945 C   0  0  0  0  0  0
   19.3983   21.8897   18.0759 C   0  0  0  0  0  0
   18.0457   22.1841   17.8186 C   0  0  0  0  0  0
   17.6638   22.6907   16.5806 C   0  0  0  0  0  0
   21.8241   21.8116   17.3926 C   0  0  0  0  0  0
   22.8167   22.8130   17.2617 C   0  0  0  0  0  0
   24.1777   22.5104   17.5721 C   0  0  0  0  0  0
   24.5210   21.1865   18.0148 C   0  0  0  0  0  0
   23.5331   20.2180   18.1444 C   0  0  0  0  0  0
   22.2010   20.5121   17.8366 C   0  0  0  0  0  0
   25.9618   20.7870   18.2591 C   0  0  0  0  0  0
   26.8748   21.3908   17.1946 C   0  0  0  0  0  0
   26.0409   19.2613   18.2217 C   0  0  0  0  0  0
   26.4952   18.6523   19.1587 O   0  0  0  0  0  0
   25.6478   18.5992   17.1658 O   0  0  0  0  0  0
   21.2665   19.5314   17.9524 F   0  0  0  0  0  0
   25.9122   17.7082   17.0462 H   0  0  0  0  0  0
  1  2  2  0  0  0
  2  3  1  0  0  0
  3  7  1  0  0  0
  4  3  2  0  0  0
  5  4  1  0  0  0
  6  5  2  0  0  0
  6  1  1  0  0  0
  7  8  2  0  0  0
  7 12  1  0  0  0
  8  9  1  0  0  0
  9 10  2  0  0  0
 10 13  1  0  0  0
 11 10  1  0  0  0
 12 11  2  0  0  0
 13 14  1  0  0  0
 15 17  1  0  0  0
 15 13  1  0  0  0
 16 15  2  0  0  0
 17 19  1  0  0  0
 18 12  1  0  0  0
M  END
>  <CHROM.0>
-32.24842254,178.64447788,38.16364226,-31.55736310,21.99347473,-68.89867093
63.95847756

>  <CHROM.1>
55.88399234,-39.27683094,162.90767299,-124.13659987,22.62075176,21.09067459
17.52958132,-2.76463021,0.02317305,2.76147380

>  <FORMUL>
      FLP    C15 H13 F1 O2

>  <HET>
 FLP  A 701      18

>  <HETNAM>
     FLP FLURBIPROFEN

>  <Name>
FLP.pdb

>  <RI>
0

>  <Rbt.Current_Directory>
/home/malgorzata/Desktop/rDOCK_IFD/Wyniki/4a_COX2

>  <Rbt.Executable>
rbdock ($Id: //depot/dev/client3/rdock/2013.1/src/exe/rbdock.cxx#4 $)

>  <Rbt.Library>
libRbt.so (2013.1, Build901 2013/11/27)

>  <Rbt.Parameter_File>
/home/malgorzata/Desktop/rDock_2013.1_src/data/scripts/soft_docking.prm

>  <Rbt.Receptor>
cavity.prm

>  <SCORE>
-28.8946

>  <SCORE.INTER>
-19.7511

>  <SCORE.INTER.CONST>
1

>  <SCORE.INTER.POLAR>
-0.511778

>  <SCORE.INTER.REPUL>
0.0892184

>  <SCORE.INTER.ROT>
3

>  <SCORE.INTER.VDW>
-26.8571

>  <SCORE.INTER.norm>
-1.09728

>  <SCORE.INTRA>
0.725099

>  <SCORE.INTRA.DIHEDRAL>
1.13411

>  <SCORE.INTRA.DIHEDRAL.0>
5.47211

>  <SCORE.INTRA.POLAR>
0

>  <SCORE.INTRA.POLAR.0>
0

>  <SCORE.INTRA.REPUL>
0

>  <SCORE.INTRA.REPUL.0>
0

>  <SCORE.INTRA.VDW>
0.498277

>  <SCORE.INTRA.VDW.0>
0.722234

>  <SCORE.INTRA.norm>
0.0402833

>  <SCORE.RESTR>
0

>  <SCORE.RESTR.CAVITY>
0

>  <SCORE.RESTR.norm>
0

>  <SCORE.SYSTEM>
-9.86859

>  <SCORE.SYSTEM.CONST>
0

>  <SCORE.SYSTEM.DIHEDRAL>
4.60847

>  <SCORE.SYSTEM.POLAR>
-2.84171

>  <SCORE.SYSTEM.REPUL>
0.64611

>  <SCORE.SYSTEM.VDW>
-5.74155

>  <SCORE.SYSTEM.norm>
-0.548255

>  <SCORE.heavy>
18

>  <SCORE.norm>
-1.60525

$$$$
