S58.pdb
  rDOCK(R)          3D
libRbt.so/2013.1/901 2013/11/27
 28 30  0  0  0  0  0  0  0  0999 V2000
   24.7639   27.9274   31.4025 C   0  0  0  0  0  0
   25.7648   28.4283   30.6268 C   0  0  0  0  0  0
   24.9996   28.4593   32.7761 C   0  0  0  0  0  0
   24.2532   28.1501   34.0394 C   0  0  0  0  0  0
   27.4835   30.1714   31.0046 C   0  0  0  0  0  0
   27.1750   30.9224   29.8633 C   0  0  0  0  0  0
   28.0378   31.9283   29.4541 C   0  0  0  0  0  0
   29.2140   32.1841   30.1960 C   0  0  0  0  0  0
   29.5197   31.4295   31.3410 C   0  0  0  0  0  0
   28.6486   30.4149   31.7450 C   0  0  0  0  0  0
   25.9581   28.1056   29.1799 C   0  0  0  0  0  0
   27.2667   28.1015   28.6334 C   0  0  0  0  0  0
   27.4821   27.6549   27.3164 C   0  0  0  0  0  0
   26.4078   27.2112   26.5499 C   0  0  0  0  0  0
   25.1101   27.2412   27.0723 C   0  0  0  0  0  0
   24.8811   27.6889   28.3948 C   0  0  0  0  0  0
   26.5708   29.2293   31.4034 N   0  0  0  0  0  0
   26.0512   29.2314   32.7351 N   0  0  0  0  0  0
   31.9740   32.8534   29.6648 N   0  0  0  0  0  0
   30.2219   34.6141   30.5770 O   0  0  0  0  0  0
   29.9680   33.9262   28.3521 O   0  0  0  0  0  0
   26.7276   26.4305   24.9079 Br  0  0  0  0  0  0
   23.6855   26.9224   33.9370 F   0  0  0  0  0  0
   23.3374   29.1029   34.2743 F   0  0  0  0  0  0
   25.1352   28.1344   35.0450 F   0  0  0  0  0  0
   30.3477   33.5138   29.6742 S   0  0  0  0  0  0
   32.7411   33.4527   29.7520 H   0  0  0  0  0  0
   32.1133   31.8860   29.5750 H   0  0  0  0  0  0
  1  3  1  0  0  0
  2  1  2  0  0  0
  2 17  1  0  0  0
  3 18  2  0  0  0
  3  4  1  0  0  0
  4 23  1  0  0  0
  4 25  1  0  0  0
  5 17  1  0  0  0
  5  6  2  0  0  0
  7  6  1  0  0  0
  8  7  2  0  0  0
  9 10  2  0  0  0
  9  8  1  0  0  0
 10  5  1  0  0  0
 11  2  1  0  0  0
 12 11  1  0  0  0
 13 12  2  0  0  0
 14 15  2  0  0  0
 14 13  1  0  0  0
 15 16  1  0  0  0
 16 11  2  0  0  0
 17 18  1  0  0  0
 19 28  1  0  0  0
 20 26  2  0  0  0
 22 14  1  0  0  0
 24  4  1  0  0  0
 26  8  1  0  0  0
 26 19  1  0  0  0
 26 21  2  0  0  0
 27 19  1  0  0  0
M  END
>  <CHROM.0>
-54.65353993,117.68103695,-70.41951727,172.56748739

>  <CHROM.1>
25.63625086,35.57364882,-149.44753218,-131.62514142,-156.55424207,27.03888865
29.33275138,29.68694744,2.00560591,-0.81525385,-2.01839584

>  <FORMUL>
      S58    C16 H11 Br1 F3 N3 O2 S1

>  <HET>
 S58  A 701      28

>  <HETNAM>
     S58 1-PHENYLSULFONAMIDE-3-TRIFLUOROMETHYL-5-PARABROMOPHENYL
   2 S58 PYRAZOLE

>  <Name>
S58.pdb

>  <RI>
0

>  <Rbt.Current_Directory>
/home/malgorzata/Desktop/rDOCK_IFD/Wyniki/3_COX2/IFD

>  <Rbt.Executable>
rbdock ($Id: //depot/dev/client3/rdock/2013.1/src/exe/rbdock.cxx#4 $)

>  <Rbt.Library>
libRbt.so (2013.1, Build901 2013/11/27)

>  <Rbt.Parameter_File>
/home/malgorzata/Desktop/rDock_2013.1_src/data/scripts/dock.prm

>  <Rbt.Receptor>
cavity.prm

>  <SCORE>
-25.4734

>  <SCORE.INTER>
-14.9578

>  <SCORE.INTER.CONST>
1

>  <SCORE.INTER.POLAR>
-1.27221

>  <SCORE.INTER.REPUL>
0

>  <SCORE.INTER.ROT>
5

>  <SCORE.INTER.VDW>
-21.0323

>  <SCORE.INTER.norm>
-0.575299

>  <SCORE.INTRA>
-2.87053

>  <SCORE.INTRA.DIHEDRAL>
-6.36955

>  <SCORE.INTRA.DIHEDRAL.0>
18.1022

>  <SCORE.INTRA.POLAR>
0

>  <SCORE.INTRA.POLAR.0>
0

>  <SCORE.INTRA.REPUL>
0

>  <SCORE.INTRA.REPUL.0>
0

>  <SCORE.INTRA.VDW>
0.314248

>  <SCORE.INTRA.VDW.0>
-2.81782

>  <SCORE.INTRA.norm>
-0.110405

>  <SCORE.RESTR>
0

>  <SCORE.RESTR.CAVITY>
0

>  <SCORE.RESTR.norm>
0

>  <SCORE.SYSTEM>
-7.64509

>  <SCORE.SYSTEM.CONST>
0

>  <SCORE.SYSTEM.DIHEDRAL>
1.46397

>  <SCORE.SYSTEM.POLAR>
-1.89735

>  <SCORE.SYSTEM.VDW>
-1.92609

>  <SCORE.SYSTEM.norm>
-0.294042

>  <SCORE.heavy>
26

>  <SCORE.norm>
-0.979746

$$$$
S58.pdb
  rDOCK(R)          3D
libRbt.so/2013.1/901 2013/11/27
 28 30  0  0  0  0  0  0  0  0999 V2000
   25.4535   27.8892   32.4316 C   0  0  0  0  0  0
   24.6739   27.5410   31.3708 C   0  0  0  0  0  0
   26.4400   28.8804   31.9122 C   0  0  0  0  0  0
   27.5910   29.5186   32.6308 C   0  0  0  0  0  0
   24.4218   28.4622   29.0854 C   0  0  0  0  0  0
   23.0271   28.3339   29.1027 C   0  0  0  0  0  0
   22.3026   28.6002   27.9505 C   0  0  0  0  0  0
   22.9806   29.0008   26.7762 C   0  0  0  0  0  0
   24.3796   29.1297   26.7627 C   0  0  0  0  0  0
   25.1036   28.8555   27.9255 C   0  0  0  0  0  0
   23.5827   26.5202   31.4196 C   0  0  0  0  0  0
   22.7837   26.4064   32.5857 C   0  0  0  0  0  0
   21.6604   25.5588   32.5937 C   0  0  0  0  0  0
   21.3300   24.8340   31.4518 C   0  0  0  0  0  0
   22.1314   24.9183   30.3079 C   0  0  0  0  0  0
   23.2638   25.7664   30.2883 C   0  0  0  0  0  0
   25.0881   28.2467   30.2639 N   0  0  0  0  0  0
   26.1843   29.0799   30.6479 N   0  0  0  0  0  0
   23.1901   29.6326   23.9647 N   0  0  0  0  0  0
   21.2143   30.5136   25.4886 O   0  0  0  0  0  0
   21.2092   28.2296   24.9676 O   0  0  0  0  0  0
   19.7413   23.8951   31.4028 Br  0  0  0  0  0  0
   27.1558   30.6258   33.2825 F   0  0  0  0  0  0
   28.5703   29.8077   31.7596 F   0  0  0  0  0  0
   28.0513   28.6422   33.5305 F   0  0  0  0  0  0
   22.0357   29.3670   25.2600 S   0  0  0  0  0  0
   22.8881   29.6162   23.0353 H   0  0  0  0  0  0
   24.1347   29.7995   24.1720 H   0  0  0  0  0  0
  1  3  1  0  0  0
  2  1  2  0  0  0
  2 17  1  0  0  0
  3 18  2  0  0  0
  3  4  1  0  0  0
  4 23  1  0  0  0
  4 25  1  0  0  0
  5 17  1  0  0  0
  5  6  2  0  0  0
  7  6  1  0  0  0
  8  7  2  0  0  0
  9 10  2  0  0  0
  9  8  1  0  0  0
 10  5  1  0  0  0
 11  2  1  0  0  0
 12 11  1  0  0  0
 13 12  2  0  0  0
 14 15  2  0  0  0
 14 13  1  0  0  0
 15 16  1  0  0  0
 16 11  2  0  0  0
 17 18  1  0  0  0
 19 28  1  0  0  0
 20 26  2  0  0  0
 22 14  1  0  0  0
 24  4  1  0  0  0
 26  8  1  0  0  0
 26 19  1  0  0  0
 26 21  2  0  0  0
 27 19  1  0  0  0
M  END
>  <CHROM.0>
-54.18841634,125.03209893,72.16259673,162.20649384

>  <CHROM.1>
-86.60117249,21.77432558,36.38996436,-173.09960884,164.39539649,23.38218242
27.55394076,29.86726808,-0.00693925,0.60135317,2.08112333

>  <FORMUL>
      S58    C16 H11 Br1 F3 N3 O2 S1

>  <HET>
 S58  A 701      28

>  <HETNAM>
     S58 1-PHENYLSULFONAMIDE-3-TRIFLUOROMETHYL-5-PARABROMOPHENYL
   2 S58 PYRAZOLE

>  <Name>
S58.pdb

>  <RI>
0

>  <Rbt.Current_Directory>
/home/malgorzata/Desktop/rDOCK_IFD/Wyniki/3_COX2/IFD

>  <Rbt.Executable>
rbdock ($Id: //depot/dev/client3/rdock/2013.1/src/exe/rbdock.cxx#4 $)

>  <Rbt.Library>
libRbt.so (2013.1, Build901 2013/11/27)

>  <Rbt.Parameter_File>
/home/malgorzata/Desktop/rDock_2013.1_src/data/scripts/dock.prm

>  <Rbt.Receptor>
cavity.prm

>  <SCORE>
-17.65

>  <SCORE.INTER>
-9.45552

>  <SCORE.INTER.CONST>
1

>  <SCORE.INTER.POLAR>
-1.76217

>  <SCORE.INTER.REPUL>
0

>  <SCORE.INTER.ROT>
5

>  <SCORE.INTER.VDW>
-13.8641

>  <SCORE.INTER.norm>
-0.363674

>  <SCORE.INTRA>
-2.73021

>  <SCORE.INTRA.DIHEDRAL>
-8.02666

>  <SCORE.INTRA.DIHEDRAL.0>
18.1022

>  <SCORE.INTRA.POLAR>
0

>  <SCORE.INTRA.POLAR.0>
0

>  <SCORE.INTRA.REPUL>
0

>  <SCORE.INTRA.REPUL.0>
0

>  <SCORE.INTRA.VDW>
1.28312

>  <SCORE.INTRA.VDW.0>
-2.81782

>  <SCORE.INTRA.norm>
-0.105008

>  <SCORE.RESTR>
0

>  <SCORE.RESTR.CAVITY>
0

>  <SCORE.RESTR.norm>
0

>  <SCORE.SYSTEM>
-5.46425

>  <SCORE.SYSTEM.CONST>
0

>  <SCORE.SYSTEM.DIHEDRAL>
1.6686

>  <SCORE.SYSTEM.POLAR>
-1.39485

>  <SCORE.SYSTEM.REPUL>
0.0778772

>  <SCORE.SYSTEM.VDW>
-1.94546

>  <SCORE.SYSTEM.norm>
-0.210164

>  <SCORE.heavy>
26

>  <SCORE.norm>
-0.678845

$$$$
S58.pdb
  rDOCK(R)          3D
libRbt.so/2013.1/901 2013/11/27
 28 30  0  0  0  0  0  0  0  0999 V2000
   24.9532   27.6242   30.8542 C   0  0  0  0  0  0
   24.4073   27.3095   29.6470 C   0  0  0  0  0  0
   23.8066   27.9037   31.7665 C   0  0  0  0  0  0
   23.8372   28.3875   33.1855 C   0  0  0  0  0  0
   22.0920   26.8178   28.9170 C   0  0  0  0  0  0
   22.2020   27.1115   27.5519 C   0  0  0  0  0  0
   21.3071   26.5439   26.6572 C   0  0  0  0  0  0
   20.2992   25.6745   27.1342 C   0  0  0  0  0  0
   20.1925   25.3812   28.5041 C   0  0  0  0  0  0
   21.0944   25.9599   29.4004 C   0  0  0  0  0  0
   25.1953   27.0130   28.4117 C   0  0  0  0  0  0
   24.8353   25.9061   27.6017 C   0  0  0  0  0  0
   25.4677   25.7015   26.3613 C   0  0  0  0  0  0
   26.4460   26.5915   25.9263 C   0  0  0  0  0  0
   26.8275   27.6685   26.7340 C   0  0  0  0  0  0
   26.1995   27.8838   27.9834 C   0  0  0  0  0  0
   23.0357   27.3547   29.7540 N   0  0  0  0  0  0
   22.7024   27.7173   31.0960 N   0  0  0  0  0  0
   18.5698   23.4063   26.6738 N   0  0  0  0  0  0
   19.7858   24.7031   24.7137 O   0  0  0  0  0  0
   18.0264   25.8177   25.7862 O   0  0  0  0  0  0
   27.1137   26.4370   24.2122 Br  0  0  0  0  0  0
   22.7670   29.1903   33.4099 F   0  0  0  0  0  0
   24.9943   29.0234   33.4270 F   0  0  0  0  0  0
   23.7501   27.3196   33.9864 F   0  0  0  0  0  0
   19.1265   24.9121   25.9640 S   0  0  0  0  0  0
   18.8013   22.5562   26.2506 H   0  0  0  0  0  0
   18.0304   23.4169   27.4936 H   0  0  0  0  0  0
  1  3  1  0  0  0
  2  1  2  0  0  0
  2 17  1  0  0  0
  3 18  2  0  0  0
  3  4  1  0  0  0
  4 23  1  0  0  0
  4 25  1  0  0  0
  5 17  1  0  0  0
  5  6  2  0  0  0
  7  6  1  0  0  0
  8  7  2  0  0  0
  9 10  2  0  0  0
  9  8  1  0  0  0
 10  5  1  0  0  0
 11  2  1  0  0  0
 12 11  1  0  0  0
 13 12  2  0  0  0
 14 15  2  0  0  0
 14 13  1  0  0  0
 15 16  1  0  0  0
 16 11  2  0  0  0
 17 18  1  0  0  0
 19 28  1  0  0  0
 20 26  2  0  0  0
 22 14  1  0  0  0
 24  4  1  0  0  0
 26  8  1  0  0  0
 26 19  1  0  0  0
 26 21  2  0  0  0
 27 19  1  0  0  0
M  END
>  <CHROM.0>
-54.01003197,-81.52477928,-179.51357202,153.89488791

>  <CHROM.1>
146.04635423,-51.21318690,135.25548533,153.44399470,-114.16734804,23.41785203
26.64499204,28.03167261,-1.63560472,-0.24701655,-1.87679635

>  <FORMUL>
      S58    C16 H11 Br1 F3 N3 O2 S1

>  <HET>
 S58  A 701      28

>  <HETNAM>
     S58 1-PHENYLSULFONAMIDE-3-TRIFLUOROMETHYL-5-PARABROMOPHENYL
   2 S58 PYRAZOLE

>  <Name>
S58.pdb

>  <RI>
0

>  <Rbt.Current_Directory>
/home/malgorzata/Desktop/rDOCK_IFD/Wyniki/3_COX2/IFD

>  <Rbt.Executable>
rbdock ($Id: //depot/dev/client3/rdock/2013.1/src/exe/rbdock.cxx#4 $)

>  <Rbt.Library>
libRbt.so (2013.1, Build901 2013/11/27)

>  <Rbt.Parameter_File>
/home/malgorzata/Desktop/rDock_2013.1_src/data/scripts/dock.prm

>  <Rbt.Receptor>
cavity.prm

>  <SCORE>
-19.2785

>  <SCORE.INTER>
-12.3381

>  <SCORE.INTER.CONST>
1

>  <SCORE.INTER.POLAR>
-1

>  <SCORE.INTER.REPUL>
0.0264123

>  <SCORE.INTER.ROT>
5

>  <SCORE.INTER.VDW>
-19.4702

>  <SCORE.INTER.norm>
-0.474542

>  <SCORE.INTRA>
-0.536899

>  <SCORE.INTRA.DIHEDRAL>
-1.7557

>  <SCORE.INTRA.DIHEDRAL.0>
18.1022

>  <SCORE.INTRA.POLAR>
0

>  <SCORE.INTRA.POLAR.0>
0

>  <SCORE.INTRA.REPUL>
0

>  <SCORE.INTRA.REPUL.0>
0

>  <SCORE.INTRA.VDW>
0.340952

>  <SCORE.INTRA.VDW.0>
-2.81782

>  <SCORE.INTRA.norm>
-0.02065

>  <SCORE.RESTR>
0

>  <SCORE.RESTR.CAVITY>
0

>  <SCORE.RESTR.norm>
0

>  <SCORE.SYSTEM>
-6.40347

>  <SCORE.SYSTEM.CONST>
0

>  <SCORE.SYSTEM.DIHEDRAL>
0.968004

>  <SCORE.SYSTEM.POLAR>
-1.39462

>  <SCORE.SYSTEM.REPUL>
0.0360894

>  <SCORE.SYSTEM.VDW>
-2.32623

>  <SCORE.SYSTEM.norm>
-0.246287

>  <SCORE.heavy>
26

>  <SCORE.norm>
-0.74148

$$$$
S58.pdb
  rDOCK(R)          3D
libRbt.so/2013.1/901 2013/11/27
 28 30  0  0  0  0  0  0  0  0999 V2000
   24.1469   26.8681   30.2938 C   0  0  0  0  0  0
   25.0707   27.5663   29.5774 C   0  0  0  0  0  0
   23.9002   27.6599   31.5338 C   0  0  0  0  0  0
   23.0454   27.3069   32.7141 C   0  0  0  0  0  0
   26.0081   29.8482   29.7996 C   0  0  0  0  0  0
   27.1535   30.2791   30.4808 C   0  0  0  0  0  0
   27.8499   31.3842   30.0145 C   0  0  0  0  0  0
   27.3968   32.0578   28.8570 C   0  0  0  0  0  0
   26.2480   31.6222   28.1754 C   0  0  0  0  0  0
   25.5487   30.5111   28.6531 C   0  0  0  0  0  0
   25.6602   27.1098   28.2816 C   0  0  0  0  0  0
   25.0369   26.0591   27.5617 C   0  0  0  0  0  0
   25.4884   25.7192   26.2729 C   0  0  0  0  0  0
   26.5469   26.4203   25.7014 C   0  0  0  0  0  0
   27.1862   27.4378   26.4182 C   0  0  0  0  0  0
   26.7417   27.7877   27.7150 C   0  0  0  0  0  0
   25.3887   28.7165   30.2633 N   0  0  0  0  0  0
   24.6271   28.7423   31.4728 N   0  0  0  0  0  0
   28.2254   33.4678   26.4752 N   0  0  0  0  0  0
   29.6615   33.4403   28.6975 O   0  0  0  0  0  0
   27.6783   34.6865   28.7365 O   0  0  0  0  0  0
   26.9899   26.1117   23.9361 Br  0  0  0  0  0  0
   21.8016   26.9763   32.2854 F   0  0  0  0  0  0
   23.0161   28.3319   33.5803 F   0  0  0  0  0  0
   23.5912   26.2432   33.3141 F   0  0  0  0  0  0
   28.3136   33.5033   28.2279 S   0  0  0  0  0  0
   28.9835   33.7836   25.9451 H   0  0  0  0  0  0
   27.4196   33.1299   26.0283 H   0  0  0  0  0  0
  1  3  1  0  0  0
  2  1  2  0  0  0
  2 17  1  0  0  0
  3 18  2  0  0  0
  3  4  1  0  0  0
  4 23  1  0  0  0
  4 25  1  0  0  0
  5 17  1  0  0  0
  5  6  2  0  0  0
  7  6  1  0  0  0
  8  7  2  0  0  0
  9 10  2  0  0  0
  9  8  1  0  0  0
 10  5  1  0  0  0
 11  2  1  0  0  0
 12 11  1  0  0  0
 13 12  2  0  0  0
 14 15  2  0  0  0
 14 13  1  0  0  0
 15 16  1  0  0  0
 16 11  2  0  0  0
 17 18  1  0  0  0
 19 28  1  0  0  0
 20 26  2  0  0  0
 22 14  1  0  0  0
 24  4  1  0  0  0
 26  8  1  0  0  0
 26 19  1  0  0  0
 26 21  2  0  0  0
 27 19  1  0  0  0
M  END
>  <CHROM.0>
-53.56697629,-88.89009796,-66.94041438,142.90845658

>  <CHROM.1>
-52.68739830,-125.37722255,15.51966692,144.54155972,-145.59271631,26.06729667
28.84827867,28.49572101,2.64099811,0.96637604,0.75334229

>  <FORMUL>
      S58    C16 H11 Br1 F3 N3 O2 S1

>  <HET>
 S58  A 701      28

>  <HETNAM>
     S58 1-PHENYLSULFONAMIDE-3-TRIFLUOROMETHYL-5-PARABROMOPHENYL
   2 S58 PYRAZOLE

>  <Name>
S58.pdb

>  <RI>
0

>  <Rbt.Current_Directory>
/home/malgorzata/Desktop/rDOCK_IFD/Wyniki/3_COX2/IFD

>  <Rbt.Executable>
rbdock ($Id: //depot/dev/client3/rdock/2013.1/src/exe/rbdock.cxx#4 $)

>  <Rbt.Library>
libRbt.so (2013.1, Build901 2013/11/27)

>  <Rbt.Parameter_File>
/home/malgorzata/Desktop/rDock_2013.1_src/data/scripts/dock.prm

>  <Rbt.Receptor>
cavity.prm

>  <SCORE>
-28.9666

>  <SCORE.INTER>
-19.3155

>  <SCORE.INTER.CONST>
1

>  <SCORE.INTER.POLAR>
-2.16799

>  <SCORE.INTER.REPUL>
0

>  <SCORE.INTER.ROT>
5

>  <SCORE.INTER.VDW>
-22.3443

>  <SCORE.INTER.norm>
-0.742903

>  <SCORE.INTRA>
-2.2293

>  <SCORE.INTRA.DIHEDRAL>
-4.47291

>  <SCORE.INTRA.DIHEDRAL.0>
18.1022

>  <SCORE.INTRA.POLAR>
0

>  <SCORE.INTRA.POLAR.0>
0

>  <SCORE.INTRA.REPUL>
0

>  <SCORE.INTRA.REPUL.0>
0

>  <SCORE.INTRA.VDW>
0.00715727

>  <SCORE.INTRA.VDW.0>
-2.81782

>  <SCORE.INTRA.norm>
-0.0857423

>  <SCORE.RESTR>
0

>  <SCORE.RESTR.CAVITY>
0

>  <SCORE.RESTR.norm>
0

>  <SCORE.SYSTEM>
-7.42186

>  <SCORE.SYSTEM.CONST>
0

>  <SCORE.SYSTEM.DIHEDRAL>
1.22783

>  <SCORE.SYSTEM.POLAR>
-1.89275

>  <SCORE.SYSTEM.VDW>
-1.60043

>  <SCORE.SYSTEM.norm>
-0.285456

>  <SCORE.heavy>
26

>  <SCORE.norm>
-1.1141

$$$$
S58.pdb
  rDOCK(R)          3D
libRbt.so/2013.1/901 2013/11/27
 28 30  0  0  0  0  0  0  0  0999 V2000
   24.0182   27.9749   31.0423 C   0  0  0  0  0  0
   25.1664   28.3815   30.4336 C   0  0  0  0  0  0
   24.1093   28.4466   32.4546 C   0  0  0  0  0  0
   23.1619   28.1916   33.5886 C   0  0  0  0  0  0
   26.9861   29.9181   31.1138 C   0  0  0  0  0  0
   26.9203   30.7301   29.9744 C   0  0  0  0  0  0
   27.9331   31.6452   29.7288 C   0  0  0  0  0  0
   29.0152   31.7486   30.6329 C   0  0  0  0  0  0
   29.0774   30.9334   31.7755 C   0  0  0  0  0  0
   28.0563   30.0105   32.0145 C   0  0  0  0  0  0
   25.5298   28.0728   29.0167 C   0  0  0  0  0  0
   26.8921   28.0961   28.6234 C   0  0  0  0  0  0
   27.2649   27.6630   27.3374 C   0  0  0  0  0  0
   26.2936   27.2057   26.4508 C   0  0  0  0  0  0
   24.9444   27.2086   26.8215 C   0  0  0  0  0  0
   24.5575   27.6425   28.1114 C   0  0  0  0  0  0
   25.9324   29.0721   31.3451 N   0  0  0  0  0  0
   25.2309   29.1003   32.5903 N   0  0  0  0  0  0
   29.5891   34.4710   29.8538 N   0  0  0  0  0  0
   31.2102   32.4518   29.3087 O   0  0  0  0  0  0
   31.0803   33.1277   31.5479 O   0  0  0  0  0  0
   26.8135   26.4427   24.8522 Br  0  0  0  0  0  0
   22.8440   26.8733   33.6210 F   0  0  0  0  0  0
   22.0712   28.9625   33.4551 F   0  0  0  0  0  0
   23.7869   28.5122   34.7270 F   0  0  0  0  0  0
   30.3447   32.9587   30.3263 S   0  0  0  0  0  0
   29.9790   35.0032   29.1326 H   0  0  0  0  0  0
   28.7769   34.7804   30.3096 H   0  0  0  0  0  0
  1  3  1  0  0  0
  2  1  2  0  0  0
  2 17  1  0  0  0
  3 18  2  0  0  0
  3  4  1  0  0  0
  4 23  1  0  0  0
  4 25  1  0  0  0
  5 17  1  0  0  0
  5  6  2  0  0  0
  7  6  1  0  0  0
  8  7  2  0  0  0
  9 10  2  0  0  0
  9  8  1  0  0  0
 10  5  1  0  0  0
 11  2  1  0  0  0
 12 11  1  0  0  0
 13 12  2  0  0  0
 14 15  2  0  0  0
 14 13  1  0  0  0
 15 16  1  0  0  0
 16 11  2  0  0  0
 17 18  1  0  0  0
 19 28  1  0  0  0
 20 26  2  0  0  0
 22 14  1  0  0  0
 24  4  1  0  0  0
 26  8  1  0  0  0
 26 19  1  0  0  0
 26 21  2  0  0  0
 27 19  1  0  0  0
M  END
>  <CHROM.0>
-53.92951402,-171.78852875,72.78501640,145.05854467

>  <CHROM.1>
46.72981308,35.95800449,-156.94089879,44.42319560,-139.13832092,26.65106350
29.18765217,29.71856485,1.84568121,-0.67032644,-2.07278215

>  <FORMUL>
      S58    C16 H11 Br1 F3 N3 O2 S1

>  <HET>
 S58  A 701      28

>  <HETNAM>
     S58 1-PHENYLSULFONAMIDE-3-TRIFLUOROMETHYL-5-PARABROMOPHENYL
   2 S58 PYRAZOLE

>  <Name>
S58.pdb

>  <RI>
0

>  <Rbt.Current_Directory>
/home/malgorzata/Desktop/rDOCK_IFD/Wyniki/3_COX2/IFD

>  <Rbt.Executable>
rbdock ($Id: //depot/dev/client3/rdock/2013.1/src/exe/rbdock.cxx#4 $)

>  <Rbt.Library>
libRbt.so (2013.1, Build901 2013/11/27)

>  <Rbt.Parameter_File>
/home/malgorzata/Desktop/rDock_2013.1_src/data/scripts/dock.prm

>  <Rbt.Receptor>
cavity.prm

>  <SCORE>
-15.5837

>  <SCORE.INTER>
-7.36137

>  <SCORE.INTER.CONST>
1

>  <SCORE.INTER.POLAR>
-0.1394

>  <SCORE.INTER.REPUL>
0.00316233

>  <SCORE.INTER.ROT>
5

>  <SCORE.INTER.VDW>
-17.3032

>  <SCORE.INTER.norm>
-0.28313

>  <SCORE.INTRA>
-2.98788

>  <SCORE.INTRA.DIHEDRAL>
-7.4129

>  <SCORE.INTRA.DIHEDRAL.0>
18.1022

>  <SCORE.INTRA.POLAR>
0

>  <SCORE.INTRA.POLAR.0>
0

>  <SCORE.INTRA.REPUL>
0

>  <SCORE.INTRA.REPUL.0>
0

>  <SCORE.INTRA.VDW>
0.718569

>  <SCORE.INTRA.VDW.0>
-2.81782

>  <SCORE.INTRA.norm>
-0.114919

>  <SCORE.RESTR>
0

>  <SCORE.RESTR.CAVITY>
0

>  <SCORE.RESTR.norm>
0

>  <SCORE.SYSTEM>
-5.23447

>  <SCORE.SYSTEM.CONST>
0

>  <SCORE.SYSTEM.DIHEDRAL>
1.76068

>  <SCORE.SYSTEM.POLAR>
-1.39451

>  <SCORE.SYSTEM.REPUL>
0.0778772

>  <SCORE.SYSTEM.VDW>
-1.76285

>  <SCORE.SYSTEM.norm>
-0.201326

>  <SCORE.heavy>
26

>  <SCORE.norm>
-0.599374

$$$$
S58.pdb
  rDOCK(R)          3D
libRbt.so/2013.1/901 2013/11/27
 28 30  0  0  0  0  0  0  0  0999 V2000
   24.1913   30.1188   26.0501 C   0  0  0  0  0  0
   24.4579   29.1992   27.0183 C   0  0  0  0  0  0
   22.9152   29.6872   25.4095 C   0  0  0  0  0  0
   22.2143   30.2842   24.2260 C   0  0  0  0  0  0
   23.1285   27.3622   28.0149 C   0  0  0  0  0  0
   23.8141   27.4670   29.2317 C   0  0  0  0  0  0
   23.4843   26.6168   30.2767 C   0  0  0  0  0  0
   22.4590   25.6593   30.1009 C   0  0  0  0  0  0
   21.7724   25.5576   28.8793 C   0  0  0  0  0  0
   22.1127   26.4140   27.8294 C   0  0  0  0  0  0
   25.6802   29.2045   27.8790 C   0  0  0  0  0  0
   25.9801   30.3495   28.6601 C   0  0  0  0  0  0
   27.0386   30.3164   29.5869 C   0  0  0  0  0  0
   27.7899   29.1543   29.7407 C   0  0  0  0  0  0
   27.5189   28.0310   28.9517 C   0  0  0  0  0  0
   26.4578   28.0528   28.0160 C   0  0  0  0  0  0
   23.4485   28.2635   27.0327 N   0  0  0  0  0  0
   22.4998   28.6119   26.0217 N   0  0  0  0  0  0
   22.6452   25.2421   32.9538 N   0  0  0  0  0  0
   22.5477   23.2483   31.2168 O   0  0  0  0  0  0
   20.5755   24.4726   31.5318 O   0  0  0  0  0  0
   29.0312   29.0518   31.1032 Br  0  0  0  0  0  0
   20.9220   30.5391   24.5503 F   0  0  0  0  0  0
   22.3083   29.4566   23.1735 F   0  0  0  0  0  0
   22.8197   31.4395   23.9289 F   0  0  0  0  0  0
   22.0084   24.5463   31.4735 S   0  0  0  0  0  0
   22.2993   26.0979   33.2751 H   0  0  0  0  0  0
   23.3440   24.7732   33.4588 H   0  0  0  0  0  0
  1  3  1  0  0  0
  2  1  2  0  0  0
  2 17  1  0  0  0
  3 18  2  0  0  0
  3  4  1  0  0  0
  4 23  1  0  0  0
  4 25  1  0  0  0
  5 17  1  0  0  0
  5  6  2  0  0  0
  7  6  1  0  0  0
  8  7  2  0  0  0
  9 10  2  0  0  0
  9  8  1  0  0  0
 10  5  1  0  0  0
 11  2  1  0  0  0
 12 11  1  0  0  0
 13 12  2  0  0  0
 14 15  2  0  0  0
 14 13  1  0  0  0
 15 16  1  0  0  0
 16 11  2  0  0  0
 17 18  1  0  0  0
 19 28  1  0  0  0
 20 26  2  0  0  0
 22 14  1  0  0  0
 24  4  1  0  0  0
 26  8  1  0  0  0
 26 19  1  0  0  0
 26 21  2  0  0  0
 27 19  1  0  0  0
M  END
>  <CHROM.0>
-54.77485561,-82.68792291,-175.66662000,173.06896335

>  <CHROM.1>
-127.72715810,7.05824905,56.86038492,17.48955821,64.99364879,24.42058694
28.03866699,28.67153567,-2.20448995,0.45496093,2.22723555

>  <FORMUL>
      S58    C16 H11 Br1 F3 N3 O2 S1

>  <HET>
 S58  A 701      28

>  <HETNAM>
     S58 1-PHENYLSULFONAMIDE-3-TRIFLUOROMETHYL-5-PARABROMOPHENYL
   2 S58 PYRAZOLE

>  <Name>
S58.pdb

>  <RI>
0

>  <Rbt.Current_Directory>
/home/malgorzata/Desktop/rDOCK_IFD/Wyniki/3_COX2/IFD

>  <Rbt.Executable>
rbdock ($Id: //depot/dev/client3/rdock/2013.1/src/exe/rbdock.cxx#4 $)

>  <Rbt.Library>
libRbt.so (2013.1, Build901 2013/11/27)

>  <Rbt.Parameter_File>
/home/malgorzata/Desktop/rDock_2013.1_src/data/scripts/dock.prm

>  <Rbt.Receptor>
cavity.prm

>  <SCORE>
-20.3623

>  <SCORE.INTER>
-11.9959

>  <SCORE.INTER.CONST>
1

>  <SCORE.INTER.POLAR>
-0.658999

>  <SCORE.INTER.REPUL>
0

>  <SCORE.INTER.ROT>
5

>  <SCORE.INTER.VDW>
-20.1553

>  <SCORE.INTER.norm>
-0.461382

>  <SCORE.INTRA>
-2.01906

>  <SCORE.INTRA.DIHEDRAL>
-5.66865

>  <SCORE.INTRA.DIHEDRAL.0>
18.1022

>  <SCORE.INTRA.POLAR>
0

>  <SCORE.INTRA.POLAR.0>
0

>  <SCORE.INTRA.REPUL>
0

>  <SCORE.INTRA.REPUL.0>
0

>  <SCORE.INTRA.VDW>
0.815263

>  <SCORE.INTRA.VDW.0>
-2.81782

>  <SCORE.INTRA.norm>
-0.0776563

>  <SCORE.RESTR>
0.00269777

>  <SCORE.RESTR.CAVITY>
0.00269777

>  <SCORE.RESTR.norm>
0.00010376

>  <SCORE.SYSTEM>
-6.34998

>  <SCORE.SYSTEM.CONST>
0

>  <SCORE.SYSTEM.DIHEDRAL>
1.01735

>  <SCORE.SYSTEM.POLAR>
-1.38472

>  <SCORE.SYSTEM.REPUL>
0.0307137

>  <SCORE.SYSTEM.VDW>
-2.30419

>  <SCORE.SYSTEM.norm>
-0.24423

>  <SCORE.heavy>
26

>  <SCORE.norm>
-0.783165

$$$$
S58.pdb
  rDOCK(R)          3D
libRbt.so/2013.1/901 2013/11/27
 28 30  0  0  0  0  0  0  0  0999 V2000
   21.2643   25.6206   27.8713 C   0  0  0  0  0  0
   21.7075   26.8473   28.2628 C   0  0  0  0  0  0
   20.5185   25.8373   26.5977 C   0  0  0  0  0  0
   19.7444   24.8418   25.7864 C   0  0  0  0  0  0
   21.7871   29.0526   27.1379 C   0  0  0  0  0  0
   22.6520   29.2592   26.0557 C   0  0  0  0  0  0
   23.1105   30.5394   25.7829 C   0  0  0  0  0  0
   22.6961   31.6180   26.5978 C   0  0  0  0  0  0
   21.8276   31.4074   27.6819 C   0  0  0  0  0  0
   21.3731   30.1146   27.9538 C   0  0  0  0  0  0
   22.4578   27.1133   29.5282 C   0  0  0  0  0  0
   23.0315   26.0303   30.2416 C   0  0  0  0  0  0
   23.8656   26.2747   31.3484 C   0  0  0  0  0  0
   24.1321   27.5838   31.7405 C   0  0  0  0  0  0
   23.5449   28.6561   31.0600 C   0  0  0  0  0  0
   22.7039   28.4227   29.9464 C   0  0  0  0  0  0
   21.3137   27.7806   27.3309 N   0  0  0  0  0  0
   20.5849   27.1069   26.3021 N   0  0  0  0  0  0
   22.9259   33.6472   24.5540 N   0  0  0  0  0  0
   24.6819   33.3832   26.5159 O   0  0  0  0  0  0
   22.5692   34.2145   27.0935 O   0  0  0  0  0  0
   25.3915   27.8977   33.0532 Br  0  0  0  0  0  0
   20.3242   23.6208   25.9006 F   0  0  0  0  0  0
   19.6815   25.2442   24.5075 F   0  0  0  0  0  0
   18.5051   24.7786   26.2860 F   0  0  0  0  0  0
   23.2823   33.3072   26.2388 S   0  0  0  0  0  0
   23.0815   34.5436   24.1969 H   0  0  0  0  0  0
   22.5742   32.9399   23.9715 H   0  0  0  0  0  0
  1  3  1  0  0  0
  2  1  2  0  0  0
  2 17  1  0  0  0
  3 18  2  0  0  0
  3  4  1  0  0  0
  4 23  1  0  0  0
  4 25  1  0  0  0
  5 17  1  0  0  0
  5  6  2  0  0  0
  7  6  1  0  0  0
  8  7  2  0  0  0
  9 10  2  0  0  0
  9  8  1  0  0  0
 10  5  1  0  0  0
 11  2  1  0  0  0
 12 11  1  0  0  0
 13 12  2  0  0  0
 14 15  2  0  0  0
 14 13  1  0  0  0
 15 16  1  0  0  0
 16 11  2  0  0  0
 17 18  1  0  0  0
 19 28  1  0  0  0
 20 26  2  0  0  0
 22 14  1  0  0  0
 24  4  1  0  0  0
 26  8  1  0  0  0
 26 19  1  0  0  0
 26 21  2  0  0  0
 27 19  1  0  0  0
M  END
>  <CHROM.0>
-54.05586980,-141.60221227,-177.95608082,167.53845900

>  <CHROM.1>
-32.37256163,103.29006607,15.35559452,52.98416492,173.57025051,22.59499218
28.54877987,28.34535526,2.50821936,-0.94928607,-0.56898421

>  <FORMUL>
      S58    C16 H11 Br1 F3 N3 O2 S1

>  <HET>
 S58  A 701      28

>  <HETNAM>
     S58 1-PHENYLSULFONAMIDE-3-TRIFLUOROMETHYL-5-PARABROMOPHENYL
   2 S58 PYRAZOLE

>  <Name>
S58.pdb

>  <RI>
0

>  <Rbt.Current_Directory>
/home/malgorzata/Desktop/rDOCK_IFD/Wyniki/3_COX2/IFD

>  <Rbt.Executable>
rbdock ($Id: //depot/dev/client3/rdock/2013.1/src/exe/rbdock.cxx#4 $)

>  <Rbt.Library>
libRbt.so (2013.1, Build901 2013/11/27)

>  <Rbt.Parameter_File>
/home/malgorzata/Desktop/rDock_2013.1_src/data/scripts/dock.prm

>  <Rbt.Receptor>
cavity.prm

>  <SCORE>
-10.9878

>  <SCORE.INTER>
-3.46928

>  <SCORE.INTER.CONST>
1

>  <SCORE.INTER.POLAR>
-0.789344

>  <SCORE.INTER.REPUL>
0

>  <SCORE.INTER.ROT>
5

>  <SCORE.INTER.VDW>
-11.1855

>  <SCORE.INTER.norm>
-0.133434

>  <SCORE.INTRA>
-1.20269

>  <SCORE.INTRA.DIHEDRAL>
-3.51668

>  <SCORE.INTRA.DIHEDRAL.0>
18.1022

>  <SCORE.INTRA.POLAR>
0

>  <SCORE.INTRA.POLAR.0>
0

>  <SCORE.INTRA.REPUL>
0

>  <SCORE.INTRA.REPUL.0>
0

>  <SCORE.INTRA.VDW>
0.555647

>  <SCORE.INTRA.VDW.0>
-2.81782

>  <SCORE.INTRA.norm>
-0.0462574

>  <SCORE.RESTR>
0

>  <SCORE.RESTR.CAVITY>
0

>  <SCORE.RESTR.norm>
0

>  <SCORE.SYSTEM>
-6.31584

>  <SCORE.SYSTEM.CONST>
0

>  <SCORE.SYSTEM.DIHEDRAL>
1.00189

>  <SCORE.SYSTEM.POLAR>
-1.39467

>  <SCORE.SYSTEM.REPUL>
0.0339005

>  <SCORE.SYSTEM.VDW>
-2.24439

>  <SCORE.SYSTEM.norm>
-0.242917

>  <SCORE.heavy>
26

>  <SCORE.norm>
-0.422608

$$$$
S58.pdb
  rDOCK(R)          3D
libRbt.so/2013.1/901 2013/11/27
 28 30  0  0  0  0  0  0  0  0999 V2000
   25.5510   28.1183   32.3725 C   0  0  0  0  0  0
   24.7469   27.8076   31.3184 C   0  0  0  0  0  0
   26.5819   29.0578   31.8436 C   0  0  0  0  0  0
   27.7689   29.6389   32.5520 C   0  0  0  0  0  0
   24.5236   28.7362   29.0330 C   0  0  0  0  0  0
   23.5653   27.7988   28.6274 C   0  0  0  0  0  0
   22.8248   28.0329   27.4783 C   0  0  0  0  0  0
   23.0446   29.2152   26.7347 C   0  0  0  0  0  0
   24.0059   30.1541   27.1451 C   0  0  0  0  0  0
   24.7514   29.9098   28.3010 C   0  0  0  0  0  0
   23.6064   26.8429   31.3778 C   0  0  0  0  0  0
   23.5876   25.7279   30.5017 C   0  0  0  0  0  0
   22.6040   24.7318   30.6451 C   0  0  0  0  0  0
   21.6499   24.8391   31.6534 C   0  0  0  0  0  0
   21.6441   25.9516   32.5019 C   0  0  0  0  0  0
   22.6274   26.9600   32.3667 C   0  0  0  0  0  0
   25.1874   28.4897   30.2070 N   0  0  0  0  0  0
   26.3269   29.2677   30.5808 N   0  0  0  0  0  0
   23.1864   29.6726   23.8854 N   0  0  0  0  0  0
   21.3079   30.7356   25.4162 O   0  0  0  0  0  0
   21.1777   28.4284   25.0320 O   0  0  0  0  0  0
   20.5013   23.4285   31.9676 Br  0  0  0  0  0  0
   28.7022   28.6713   32.7333 F   0  0  0  0  0  0
   27.3846   30.1830   33.7173 F   0  0  0  0  0  0
   28.2857   30.5953   31.7726 F   0  0  0  0  0  0
   22.0662   29.5390   25.2301 S   0  0  0  0  0  0
   22.8445   29.6961   22.9701 H   0  0  0  0  0  0
   24.1523   29.7261   24.0512 H   0  0  0  0  0  0
  1  3  1  0  0  0
  2  1  2  0  0  0
  2 17  1  0  0  0
  3 18  2  0  0  0
  3  4  1  0  0  0
  4 23  1  0  0  0
  4 25  1  0  0  0
  5 17  1  0  0  0
  5  6  2  0  0  0
  7  6  1  0  0  0
  8  7  2  0  0  0
  9 10  2  0  0  0
  9  8  1  0  0  0
 10  5  1  0  0  0
 11  2  1  0  0  0
 12 11  1  0  0  0
 13 12  2  0  0  0
 14 15  2  0  0  0
 14 13  1  0  0  0
 15 16  1  0  0  0
 16 11  2  0  0  0
 17 18  1  0  0  0
 19 28  1  0  0  0
 20 26  2  0  0  0
 22 14  1  0  0  0
 24  4  1  0  0  0
 26  8  1  0  0  0
 26 19  1  0  0  0
 26 21  2  0  0  0
 27 19  1  0  0  0
M  END
>  <CHROM.0>
-54.54176558,-82.32527641,-67.92225547,169.80006831

>  <CHROM.1>
72.00797511,-29.39973311,-122.57620259,-120.12504202,169.74165483,23.61052691
27.62190564,29.94042235,-2.06805566,-0.64347005,-0.99091195

>  <FORMUL>
      S58    C16 H11 Br1 F3 N3 O2 S1

>  <HET>
 S58  A 701      28

>  <HETNAM>
     S58 1-PHENYLSULFONAMIDE-3-TRIFLUOROMETHYL-5-PARABROMOPHENYL
   2 S58 PYRAZOLE

>  <Name>
S58.pdb

>  <RI>
0

>  <Rbt.Current_Directory>
/home/malgorzata/Desktop/rDOCK_IFD/Wyniki/3_COX2/IFD

>  <Rbt.Executable>
rbdock ($Id: //depot/dev/client3/rdock/2013.1/src/exe/rbdock.cxx#4 $)

>  <Rbt.Library>
libRbt.so (2013.1, Build901 2013/11/27)

>  <Rbt.Parameter_File>
/home/malgorzata/Desktop/rDock_2013.1_src/data/scripts/dock.prm

>  <Rbt.Receptor>
cavity.prm

>  <SCORE>
-17.8239

>  <SCORE.INTER>
-9.68899

>  <SCORE.INTER.CONST>
1

>  <SCORE.INTER.POLAR>
-1.69332

>  <SCORE.INTER.REPUL>
0

>  <SCORE.INTER.ROT>
5

>  <SCORE.INTER.VDW>
-14.3317

>  <SCORE.INTER.norm>
-0.372653

>  <SCORE.INTRA>
-0.679519

>  <SCORE.INTRA.DIHEDRAL>
-4.72859

>  <SCORE.INTRA.DIHEDRAL.0>
18.1022

>  <SCORE.INTRA.POLAR>
0

>  <SCORE.INTRA.POLAR.0>
0

>  <SCORE.INTRA.REPUL>
0

>  <SCORE.INTRA.REPUL.0>
0

>  <SCORE.INTRA.VDW>
1.68478

>  <SCORE.INTRA.VDW.0>
-2.81782

>  <SCORE.INTRA.norm>
-0.0261354

>  <SCORE.RESTR>
0

>  <SCORE.RESTR.CAVITY>
0

>  <SCORE.RESTR.norm>
0

>  <SCORE.SYSTEM>
-7.45542

>  <SCORE.SYSTEM.CONST>
0

>  <SCORE.SYSTEM.DIHEDRAL>
1.24253

>  <SCORE.SYSTEM.POLAR>
-1.89516

>  <SCORE.SYSTEM.VDW>
-1.63313

>  <SCORE.SYSTEM.norm>
-0.286747

>  <SCORE.heavy>
26

>  <SCORE.norm>
-0.685536

$$$$
S58.pdb
  rDOCK(R)          3D
libRbt.so/2013.1/901 2013/11/27
 28 30  0  0  0  0  0  0  0  0999 V2000
   22.4197   25.2591   29.7510 C   0  0  0  0  0  0
   23.0888   26.4350   29.5967 C   0  0  0  0  0  0
   21.5358   25.4388   30.9391 C   0  0  0  0  0  0
   20.6528   24.4288   31.6089 C   0  0  0  0  0  0
   22.8244   28.6755   30.6192 C   0  0  0  0  0  0
   22.7953   29.3681   29.4022 C   0  0  0  0  0  0
   22.8830   30.7522   29.4020 C   0  0  0  0  0  0
   22.9967   31.4449   30.6294 C   0  0  0  0  0  0
   23.0244   30.7470   31.8485 C   0  0  0  0  0  0
   22.9402   29.3526   31.8411 C   0  0  0  0  0  0
   24.1327   26.6861   28.5565 C   0  0  0  0  0  0
   25.0935   27.7086   28.7629 C   0  0  0  0  0  0
   26.1701   27.8588   27.8692 C   0  0  0  0  0  0
   26.2946   26.9978   26.7821 C   0  0  0  0  0  0
   25.3336   26.0064   26.5554 C   0  0  0  0  0  0
   24.2464   25.8463   27.4467 C   0  0  0  0  0  0
   22.6743   27.3136   30.5718 N   0  0  0  0  0  0
   21.6958   26.6566   31.3807 N   0  0  0  0  0  0
   23.1610   33.7848   32.3162 N   0  0  0  0  0  0
   21.9632   33.7997   29.9567 O   0  0  0  0  0  0
   24.3008   33.6464   29.9541 O   0  0  0  0  0  0
   27.8184   27.0659   25.7424 Br  0  0  0  0  0  0
   21.4204   23.4554   32.1596 F   0  0  0  0  0  0
   19.7764   23.9291   30.7236 F   0  0  0  0  0  0
   19.9816   25.0515   32.5842 F   0  0  0  0  0  0
   23.0984   33.2657   30.6406 S   0  0  0  0  0  0
   22.4686   34.3797   32.6656 H   0  0  0  0  0  0
   23.8864   33.4774   32.9013 H   0  0  0  0  0  0
  1  3  1  0  0  0
  2  1  2  0  0  0
  2 17  1  0  0  0
  3 18  2  0  0  0
  3  4  1  0  0  0
  4 23  1  0  0  0
  4 25  1  0  0  0
  5 17  1  0  0  0
  5  6  2  0  0  0
  7  6  1  0  0  0
  8  7  2  0  0  0
  9 10  2  0  0  0
  9  8  1  0  0  0
 10  5  1  0  0  0
 11  2  1  0  0  0
 12 11  1  0  0  0
 13 12  2  0  0  0
 14 15  2  0  0  0
 14 13  1  0  0  0
 15 16  1  0  0  0
 16 11  2  0  0  0
 17 18  1  0  0  0
 19 28  1  0  0  0
 20 26  2  0  0  0
 22 14  1  0  0  0
 24  4  1  0  0  0
 26  8  1  0  0  0
 26 19  1  0  0  0
 26 21  2  0  0  0
 27 19  1  0  0  0
M  END
>  <CHROM.0>
-54.26425235,-89.36181338,71.80138718,152.31832809

>  <CHROM.1>
65.57117416,33.08666265,-156.95919499,177.64293056,-120.50352776,23.74583691
28.14140203,29.41789971,0.60051648,-0.73458543,-2.97440723

>  <FORMUL>
      S58    C16 H11 Br1 F3 N3 O2 S1

>  <HET>
 S58  A 701      28

>  <HETNAM>
     S58 1-PHENYLSULFONAMIDE-3-TRIFLUOROMETHYL-5-PARABROMOPHENYL
   2 S58 PYRAZOLE

>  <Name>
S58.pdb

>  <RI>
0

>  <Rbt.Current_Directory>
/home/malgorzata/Desktop/rDOCK_IFD/Wyniki/3_COX2/IFD

>  <Rbt.Executable>
rbdock ($Id: //depot/dev/client3/rdock/2013.1/src/exe/rbdock.cxx#4 $)

>  <Rbt.Library>
libRbt.so (2013.1, Build901 2013/11/27)

>  <Rbt.Parameter_File>
/home/malgorzata/Desktop/rDock_2013.1_src/data/scripts/dock.prm

>  <Rbt.Receptor>
cavity.prm

>  <SCORE>
-11.6174

>  <SCORE.INTER>
-3.25467

>  <SCORE.INTER.CONST>
1

>  <SCORE.INTER.POLAR>
0

>  <SCORE.INTER.REPUL>
0

>  <SCORE.INTER.ROT>
5

>  <SCORE.INTER.VDW>
-13.6547

>  <SCORE.INTER.norm>
-0.125179

>  <SCORE.INTRA>
-3.08032

>  <SCORE.INTRA.DIHEDRAL>
-7.96383

>  <SCORE.INTRA.DIHEDRAL.0>
18.1022

>  <SCORE.INTRA.POLAR>
0

>  <SCORE.INTRA.POLAR.0>
0

>  <SCORE.INTRA.REPUL>
0

>  <SCORE.INTRA.REPUL.0>
0

>  <SCORE.INTRA.VDW>
0.901593

>  <SCORE.INTRA.VDW.0>
-2.81782

>  <SCORE.INTRA.norm>
-0.118474

>  <SCORE.RESTR>
0

>  <SCORE.RESTR.CAVITY>
0

>  <SCORE.RESTR.norm>
0

>  <SCORE.SYSTEM>
-5.2824

>  <SCORE.SYSTEM.CONST>
0

>  <SCORE.SYSTEM.DIHEDRAL>
1.61723

>  <SCORE.SYSTEM.POLAR>
-1.39495

>  <SCORE.SYSTEM.REPUL>
0.0778772

>  <SCORE.SYSTEM.VDW>
-1.73756

>  <SCORE.SYSTEM.norm>
-0.203169

>  <SCORE.heavy>
26

>  <SCORE.norm>
-0.446823

$$$$
S58.pdb
  rDOCK(R)          3D
libRbt.so/2013.1/901 2013/11/27
 28 30  0  0  0  0  0  0  0  0999 V2000
   26.9867   27.7411   26.7611 C   0  0  0  0  0  0
   26.2081   27.5727   27.8655 C   0  0  0  0  0  0
   26.5107   26.7400   25.7628 C   0  0  0  0  0  0
   27.0767   26.4264   24.4101 C   0  0  0  0  0  0
   24.1348   26.2857   28.2903 C   0  0  0  0  0  0
   24.1357   26.4695   29.6788 C   0  0  0  0  0  0
   22.9703   26.2482   30.3975 C   0  0  0  0  0  0
   21.7975   25.8441   29.7190 C   0  0  0  0  0  0
   21.7999   25.6618   28.3259 C   0  0  0  0  0  0
   22.9783   25.8821   27.6087 C   0  0  0  0  0  0
   26.3737   28.3312   29.1430 C   0  0  0  0  0  0
   27.6476   28.3852   29.7639 C   0  0  0  0  0  0
   27.8557   29.2154   30.8809 C   0  0  0  0  0  0
   26.8090   29.9895   31.3745 C   0  0  0  0  0  0
   25.5418   29.9181   30.7857 C   0  0  0  0  0  0
   25.3203   29.0864   29.6627 C   0  0  0  0  0  0
   25.2934   26.5747   27.6167 N   0  0  0  0  0  0
   25.5084   26.0903   26.2891 N   0  0  0  0  0  0
   20.1693   23.8533   31.0355 N   0  0  0  0  0  0
   19.1474   25.9931   29.8614 O   0  0  0  0  0  0
   20.3214   26.3429   31.8581 O   0  0  0  0  0  0
   27.1462   31.2299   32.6996 Br  0  0  0  0  0  0
   28.4216   26.6019   24.4339 F   0  0  0  0  0  0
   26.4915   27.1969   23.4798 F   0  0  0  0  0  0
   26.8145   25.1423   24.1419 F   0  0  0  0  0  0
   20.2565   25.5642   30.6533 S   0  0  0  0  0  0
   19.3086   23.3915   30.9983 H   0  0  0  0  0  0
   20.9813   23.3609   31.2831 H   0  0  0  0  0  0
  1  3  1  0  0  0
  2  1  2  0  0  0
  2 17  1  0  0  0
  3 18  2  0  0  0
  3  4  1  0  0  0
  4 23  1  0  0  0
  4 25  1  0  0  0
  5 17  1  0  0  0
  5  6  2  0  0  0
  7  6  1  0  0  0
  8  7  2  0  0  0
  9 10  2  0  0  0
  9  8  1  0  0  0
 10  5  1  0  0  0
 11  2  1  0  0  0
 12 11  1  0  0  0
 13 12  2  0  0  0
 14 15  2  0  0  0
 14 13  1  0  0  0
 15 16  1  0  0  0
 16 11  2  0  0  0
 17 18  1  0  0  0
 19 28  1  0  0  0
 20 26  2  0  0  0
 22 14  1  0  0  0
 24  4  1  0  0  0
 26  8  1  0  0  0
 26 19  1  0  0  0
 26 21  2  0  0  0
 27 19  1  0  0  0
M  END
>  <CHROM.0>
-53.99115848,120.86372128,-69.67055823,151.77000545

>  <CHROM.1>
32.57424484,-35.84641277,-51.84658477,-94.45350855,-141.39885668,24.91608540
27.57242476,29.13379293,-0.80836023,-0.50879133,-2.09124912

>  <FORMUL>
      S58    C16 H11 Br1 F3 N3 O2 S1

>  <HET>
 S58  A 701      28

>  <HETNAM>
     S58 1-PHENYLSULFONAMIDE-3-TRIFLUOROMETHYL-5-PARABROMOPHENYL
   2 S58 PYRAZOLE

>  <Name>
S58.pdb

>  <RI>
0

>  <Rbt.Current_Directory>
/home/malgorzata/Desktop/rDOCK_IFD/Wyniki/3_COX2/IFD

>  <Rbt.Executable>
rbdock ($Id: //depot/dev/client3/rdock/2013.1/src/exe/rbdock.cxx#4 $)

>  <Rbt.Library>
libRbt.so (2013.1, Build901 2013/11/27)

>  <Rbt.Parameter_File>
/home/malgorzata/Desktop/rDock_2013.1_src/data/scripts/dock.prm

>  <Rbt.Receptor>
cavity.prm

>  <SCORE>
-12.1427

>  <SCORE.INTER>
-3.97825

>  <SCORE.INTER.CONST>
1

>  <SCORE.INTER.POLAR>
0

>  <SCORE.INTER.REPUL>
0

>  <SCORE.INTER.ROT>
5

>  <SCORE.INTER.VDW>
-14.3783

>  <SCORE.INTER.norm>
-0.15301

>  <SCORE.INTRA>
-0.615224

>  <SCORE.INTRA.DIHEDRAL>
-3.25353

>  <SCORE.INTRA.DIHEDRAL.0>
18.1022

>  <SCORE.INTRA.POLAR>
0

>  <SCORE.INTRA.POLAR.0>
0

>  <SCORE.INTRA.REPUL>
0

>  <SCORE.INTRA.REPUL.0>
0

>  <SCORE.INTRA.VDW>
1.01154

>  <SCORE.INTRA.VDW.0>
-2.81782

>  <SCORE.INTRA.norm>
-0.0236624

>  <SCORE.RESTR>
0.117479

>  <SCORE.RESTR.CAVITY>
0.117479

>  <SCORE.RESTR.norm>
0.00451843

>  <SCORE.SYSTEM>
-7.66666

>  <SCORE.SYSTEM.CONST>
0

>  <SCORE.SYSTEM.DIHEDRAL>
1.42795

>  <SCORE.SYSTEM.POLAR>
-1.90108

>  <SCORE.SYSTEM.VDW>
-1.91696

>  <SCORE.SYSTEM.norm>
-0.294872

>  <SCORE.heavy>
26

>  <SCORE.norm>
-0.467025

$$$$
