S58.pdb
  rDOCK(R)          3D
libRbt.so/2013.1/901 2013/11/27
 28 30  0  0  0  0  0  0  0  0999 V2000
   23.6948   30.9383   26.7933 C   0  0  0  0  0  0
   23.9975   29.7385   27.3616 C   0  0  0  0  0  0
   24.6942   31.9109   27.3230 C   0  0  0  0  0  0
   24.7671   33.3919   27.0997 C   0  0  0  0  0  0
   25.9359   28.9336   28.6770 C   0  0  0  0  0  0
   26.5695   28.0849   27.7605 C   0  0  0  0  0  0
   27.4701   27.1351   28.2192 C   0  0  0  0  0  0
   27.7389   27.0391   29.6040 C   0  0  0  0  0  0
   27.1023   27.8928   30.5205 C   0  0  0  0  0  0
   26.1929   28.8442   30.0521 C   0  0  0  0  0  0
   23.2132   28.4821   27.1581 C   0  0  0  0  0  0
   23.7176   27.2545   27.6574 C   0  0  0  0  0  0
   22.9262   26.0919   27.6083 C   0  0  0  0  0  0
   21.6424   26.1488   27.0724 C   0  0  0  0  0  0
   21.1499   27.3499   26.5503 C   0  0  0  0  0  0
   21.9367   28.5250   26.5934 C   0  0  0  0  0  0
   25.1003   29.8951   28.1703 N   0  0  0  0  0  0
   25.5111   31.2629   28.1082 N   0  0  0  0  0  0
   29.9620   25.3460   28.8699 N   0  0  0  0  0  0
   28.2153   24.6859   30.7448 O   0  0  0  0  0  0
   29.7105   26.4155   31.2555 O   0  0  0  0  0  0
   20.5383   24.6755   27.2073 Br  0  0  0  0  0  0
   26.0670   33.7707   27.0178 F   0  0  0  0  0  0
   24.1234   34.0352   28.0863 F   0  0  0  0  0  0
   24.1653   33.6626   25.9361 F   0  0  0  0  0  0
   28.9320   25.8030   30.2158 S   0  0  0  0  0  0
   30.7153   24.7415   29.0194 H   0  0  0  0  0  0
   29.7813   25.6936   27.9700 H   0  0  0  0  0  0
  1  3  1  0  0  0
  2  1  2  0  0  0
  2 17  1  0  0  0
  3 18  2  0  0  0
  3  4  1  0  0  0
  4 23  1  0  0  0
  4 25  1  0  0  0
  5 17  1  0  0  0
  5  6  2  0  0  0
  7  6  1  0  0  0
  8  7  2  0  0  0
  9 10  2  0  0  0
  9  8  1  0  0  0
 10  5  1  0  0  0
 11  2  1  0  0  0
 12 11  1  0  0  0
 13 12  2  0  0  0
 14 15  2  0  0  0
 14 13  1  0  0  0
 15 16  1  0  0  0
 16 11  2  0  0  0
 17 18  1  0  0  0
 19 28  1  0  0  0
 20 26  2  0  0  0
 22 14  1  0  0  0
 24  4  1  0  0  0
 26  8  1  0  0  0
 26 19  1  0  0  0
 26 21  2  0  0  0
 27 19  1  0  0  0
M  END
>  <CHROM.0>
125.30642853,165.35338448,174.59487522,-167.58389628,-65.09178148,61.72355710

>  <CHROM.1>
-143.90947262,56.94766875,171.79738051,20.60510569,175.10660586,24.73423943
28.14396034,28.09162727,0.62655706,-0.37807373,-0.18910867

>  <FORMUL>
      S58    C16 H11 Br1 F3 N3 O2 S1

>  <HET>
 S58  A 701      28

>  <HETNAM>
     S58 1-PHENYLSULFONAMIDE-3-TRIFLUOROMETHYL-5-PARABROMOPHENYL
   2 S58 PYRAZOLE

>  <Name>
S58.pdb

>  <RI>
1.54999e+07

>  <Rbt.Current_Directory>
/home/malgorzata/Desktop/rDOCK_IFD/Wyniki/3_COX2/IFD

>  <Rbt.Executable>
rbdock ($Id: //depot/dev/client3/rdock/2013.1/src/exe/rbdock.cxx#4 $)

>  <Rbt.Library>
libRbt.so (2013.1, Build901 2013/11/27)

>  <Rbt.Parameter_File>
/home/malgorzata/Desktop/rDock_2013.1_src/data/scripts/dock.prm

>  <Rbt.Receptor>
cavity.prm

>  <SCORE>
-23.8194

>  <SCORE.INTER>
-13.1077

>  <SCORE.INTER.CONST>
1

>  <SCORE.INTER.POLAR>
-0.995025

>  <SCORE.INTER.REPUL>
0.0831142

>  <SCORE.INTER.ROT>
5

>  <SCORE.INTER.VDW>
-20.5402

>  <SCORE.INTER.norm>
-0.504144

>  <SCORE.INTRA>
-1.46725

>  <SCORE.INTRA.DIHEDRAL>
-3.99734

>  <SCORE.INTRA.DIHEDRAL.0>
18.1022

>  <SCORE.INTRA.POLAR>
0

>  <SCORE.INTRA.POLAR.0>
0

>  <SCORE.INTRA.REPUL>
0

>  <SCORE.INTRA.REPUL.0>
0

>  <SCORE.INTRA.VDW>
0.531422

>  <SCORE.INTRA.VDW.0>
-2.81782

>  <SCORE.INTRA.norm>
-0.0564326

>  <SCORE.RESTR>
0

>  <SCORE.RESTR.CAVITY>
0

>  <SCORE.RESTR.norm>
0

>  <SCORE.SYSTEM>
-9.24443

>  <SCORE.SYSTEM.CONST>
0

>  <SCORE.SYSTEM.DIHEDRAL>
1.3826

>  <SCORE.SYSTEM.POLAR>
-2.26372

>  <SCORE.SYSTEM.VDW>
-2.23909

>  <SCORE.SYSTEM.norm>
-0.355555

>  <SCORE.heavy>
26

>  <SCORE.norm>
-0.916132

$$$$
S58.pdb
  rDOCK(R)          3D
libRbt.so/2013.1/901 2013/11/27
 28 30  0  0  0  0  0  0  0  0999 V2000
   23.7961   31.3009   26.9111 C   0  0  0  0  0  0
   25.0681   30.9489   27.2464 C   0  0  0  0  0  0
   23.0463   30.0235   26.7340 C   0  0  0  0  0  0
   21.6335   29.8248   26.2726 C   0  0  0  0  0  0
   26.1089   28.7982   27.8995 C   0  0  0  0  0  0
   26.6707   29.2690   29.0930 C   0  0  0  0  0  0
   27.6031   28.4904   29.7624 C   0  0  0  0  0  0
   27.9707   27.2318   29.2334 C   0  0  0  0  0  0
   27.4042   26.7621   28.0366 C   0  0  0  0  0  0
   26.4690   27.5534   27.3650 C   0  0  0  0  0  0
   26.1866   31.9170   27.4621 C   0  0  0  0  0  0
   25.9164   33.1764   28.0552 C   0  0  0  0  0  0
   26.9746   34.0365   28.4028 C   0  0  0  0  0  0
   28.2906   33.6472   28.1682 C   0  0  0  0  0  0
   28.5631   32.4191   27.5555 C   0  0  0  0  0  0
   27.5074   31.5464   27.2008 C   0  0  0  0  0  0
   25.1482   29.5761   27.3067 N   0  0  0  0  0  0
   23.8618   29.0377   26.9923 N   0  0  0  0  0  0
   30.3886   25.6766   28.9452 N   0  0  0  0  0  0
   28.5069   25.0873   30.7098 O   0  0  0  0  0  0
   29.7947   26.9971   31.1365 O   0  0  0  0  0  0
   29.6720   34.6840   28.8198 Br  0  0  0  0  0  0
   21.3958   28.4992   26.1103 F   0  0  0  0  0  0
   21.4225   30.5099   25.1377 F   0  0  0  0  0  0
   20.8197   30.2950   27.2245 F   0  0  0  0  0  0
   29.1853   26.1944   30.1135 S   0  0  0  0  0  0
   30.2228   25.8028   27.9903 H   0  0  0  0  0  0
   31.2259   25.2644   29.2488 H   0  0  0  0  0  0
  1  3  1  0  0  0
  2  1  2  0  0  0
  2 17  1  0  0  0
  3 18  2  0  0  0
  3  4  1  0  0  0
  4 23  1  0  0  0
  4 25  1  0  0  0
  5 17  1  0  0  0
  5  6  2  0  0  0
  7  6  1  0  0  0
  8  7  2  0  0  0
  9 10  2  0  0  0
  9  8  1  0  0  0
 10  5  1  0  0  0
 11  2  1  0  0  0
 12 11  1  0  0  0
 13 12  2  0  0  0
 14 15  2  0  0  0
 14 13  1  0  0  0
 15 16  1  0  0  0
 16 11  2  0  0  0
 17 18  1  0  0  0
 19 28  1  0  0  0
 20 26  2  0  0  0
 22 14  1  0  0  0
 24  4  1  0  0  0
 26  8  1  0  0  0
 26 19  1  0  0  0
 26 21  2  0  0  0
 27 19  1  0  0  0
M  END
>  <CHROM.0>
-68.59199400,165.72491616,174.77982351,-166.84465429,-65.20150495,61.37489802

>  <CHROM.1>
173.22792558,35.87853474,35.40882349,-130.70248399,-12.38265034,26.66807003
30.24970534,28.18286466,2.84482756,0.39301231,2.98787380

>  <FORMUL>
      S58    C16 H11 Br1 F3 N3 O2 S1

>  <HET>
 S58  A 701      28

>  <HETNAM>
     S58 1-PHENYLSULFONAMIDE-3-TRIFLUOROMETHYL-5-PARABROMOPHENYL
   2 S58 PYRAZOLE

>  <Name>
S58.pdb

>  <RI>
1.54999e+07

>  <Rbt.Current_Directory>
/home/malgorzata/Desktop/rDOCK_IFD/Wyniki/3_COX2/IFD

>  <Rbt.Executable>
rbdock ($Id: //depot/dev/client3/rdock/2013.1/src/exe/rbdock.cxx#4 $)

>  <Rbt.Library>
libRbt.so (2013.1, Build901 2013/11/27)

>  <Rbt.Parameter_File>
/home/malgorzata/Desktop/rDock_2013.1_src/data/scripts/dock.prm

>  <Rbt.Receptor>
cavity.prm

>  <SCORE>
-23.9339

>  <SCORE.INTER>
-12.451

>  <SCORE.INTER.CONST>
1

>  <SCORE.INTER.POLAR>
-1.03556

>  <SCORE.INTER.REPUL>
0.0231602

>  <SCORE.INTER.ROT>
5

>  <SCORE.INTER.VDW>
-19.4459

>  <SCORE.INTER.norm>
-0.478885

>  <SCORE.INTRA>
-2.50546

>  <SCORE.INTRA.DIHEDRAL>
-5.33133

>  <SCORE.INTRA.DIHEDRAL.0>
18.1022

>  <SCORE.INTRA.POLAR>
0

>  <SCORE.INTRA.POLAR.0>
0

>  <SCORE.INTRA.REPUL>
0

>  <SCORE.INTRA.REPUL.0>
0

>  <SCORE.INTRA.VDW>
0.160208

>  <SCORE.INTRA.VDW.0>
-2.81782

>  <SCORE.INTRA.norm>
-0.0963637

>  <SCORE.RESTR>
0

>  <SCORE.RESTR.CAVITY>
0

>  <SCORE.RESTR.norm>
0

>  <SCORE.SYSTEM>
-8.97747

>  <SCORE.SYSTEM.CONST>
0

>  <SCORE.SYSTEM.DIHEDRAL>
1.41633

>  <SCORE.SYSTEM.POLAR>
-2.27154

>  <SCORE.SYSTEM.VDW>
-1.96241

>  <SCORE.SYSTEM.norm>
-0.345287

>  <SCORE.heavy>
26

>  <SCORE.norm>
-0.920536

$$$$
S58.pdb
  rDOCK(R)          3D
libRbt.so/2013.1/901 2013/11/27
 28 30  0  0  0  0  0  0  0  0999 V2000
   24.2684   31.9762   26.8381 C   0  0  0  0  0  0
   25.4888   31.4935   27.2013 C   0  0  0  0  0  0
   23.4584   30.7908   26.4332 C   0  0  0  0  0  0
   22.0741   30.7565   25.8579 C   0  0  0  0  0  0
   26.3477   29.2061   27.6079 C   0  0  0  0  0  0
   26.3035   27.9034   27.0952 C   0  0  0  0  0  0
   27.2001   26.9546   27.5635 C   0  0  0  0  0  0
   28.1481   27.3158   28.5484 C   0  0  0  0  0  0
   28.1905   28.6237   29.0596 C   0  0  0  0  0  0
   27.2815   29.5734   28.5868 C   0  0  0  0  0  0
   26.6445   32.3423   27.6242 C   0  0  0  0  0  0
   26.4285   33.4227   28.5171 C   0  0  0  0  0  0
   27.5220   34.1360   29.0423 C   0  0  0  0  0  0
   28.8195   33.7764   28.6880 C   0  0  0  0  0  0
   29.0386   32.7311   27.7840 C   0  0  0  0  0  0
   27.9471   32.0073   27.2487 C   0  0  0  0  0  0
   25.4818   30.1233   27.0709 N   0  0  0  0  0  0
   24.1920   29.7243   26.6008 N   0  0  0  0  0  0
   29.4229   26.2378   30.9065 N   0  0  0  0  0  0
   30.6079   26.3082   28.5416 O   0  0  0  0  0  0
   28.8534   24.7774   28.7992 O   0  0  0  0  0  0
   30.2467   34.5752   29.5441 Br  0  0  0  0  0  0
   21.9078   31.8128   25.0233 F   0  0  0  0  0  0
   21.1675   30.7580   26.8478 F   0  0  0  0  0  0
   21.9493   29.6266   25.1529 F   0  0  0  0  0  0
   29.3406   26.0791   29.1604 S   0  0  0  0  0  0
   30.2703   26.4740   31.3324 H   0  0  0  0  0  0
   28.6211   26.0928   31.4536 H   0  0  0  0  0  0
  1  3  1  0  0  0
  2  1  2  0  0  0
  2 17  1  0  0  0
  3 18  2  0  0  0
  3  4  1  0  0  0
  4 23  1  0  0  0
  4 25  1  0  0  0
  5 17  1  0  0  0
  5  6  2  0  0  0
  7  6  1  0  0  0
  8  7  2  0  0  0
  9 10  2  0  0  0
  9  8  1  0  0  0
 10  5  1  0  0  0
 11  2  1  0  0  0
 12 11  1  0  0  0
 13 12  2  0  0  0
 14 15  2  0  0  0
 14 13  1  0  0  0
 15 16  1  0  0  0
 16 11  2  0  0  0
 17 18  1  0  0  0
 19 28  1  0  0  0
 20 26  2  0  0  0
 22 14  1  0  0  0
 24  4  1  0  0  0
 26  8  1  0  0  0
 26 19  1  0  0  0
 26 21  2  0  0  0
 27 19  1  0  0  0
M  END
>  <CHROM.0>
105.43430591,-85.31518029,175.08403268,-47.68251909,175.60678608,61.98571616

>  <CHROM.1>
36.63158074,-166.37228810,43.69950092,-136.21510641,-118.82257529,27.03511701
30.53851525,28.02797476,2.93169974,0.43283507,3.13874581

>  <FORMUL>
      S58    C16 H11 Br1 F3 N3 O2 S1

>  <HET>
 S58  A 701      28

>  <HETNAM>
     S58 1-PHENYLSULFONAMIDE-3-TRIFLUOROMETHYL-5-PARABROMOPHENYL
   2 S58 PYRAZOLE

>  <Name>
S58.pdb

>  <RI>
1.54999e+07

>  <Rbt.Current_Directory>
/home/malgorzata/Desktop/rDOCK_IFD/Wyniki/3_COX2/IFD

>  <Rbt.Executable>
rbdock ($Id: //depot/dev/client3/rdock/2013.1/src/exe/rbdock.cxx#4 $)

>  <Rbt.Library>
libRbt.so (2013.1, Build901 2013/11/27)

>  <Rbt.Parameter_File>
/home/malgorzata/Desktop/rDock_2013.1_src/data/scripts/dock.prm

>  <Rbt.Receptor>
cavity.prm

>  <SCORE>
-22.2884

>  <SCORE.INTER>
-10.7717

>  <SCORE.INTER.CONST>
1

>  <SCORE.INTER.POLAR>
0

>  <SCORE.INTER.REPUL>
0

>  <SCORE.INTER.ROT>
5

>  <SCORE.INTER.VDW>
-21.1717

>  <SCORE.INTER.norm>
-0.414295

>  <SCORE.INTRA>
-2.78967

>  <SCORE.INTRA.DIHEDRAL>
-7.82449

>  <SCORE.INTRA.DIHEDRAL.0>
18.1022

>  <SCORE.INTRA.POLAR>
0

>  <SCORE.INTRA.POLAR.0>
0

>  <SCORE.INTRA.REPUL>
0

>  <SCORE.INTRA.REPUL.0>
0

>  <SCORE.INTRA.VDW>
1.12257

>  <SCORE.INTRA.VDW.0>
-2.81782

>  <SCORE.INTRA.norm>
-0.107295

>  <SCORE.RESTR>
0

>  <SCORE.RESTR.CAVITY>
0

>  <SCORE.RESTR.norm>
0

>  <SCORE.SYSTEM>
-8.72704

>  <SCORE.SYSTEM.CONST>
0

>  <SCORE.SYSTEM.DIHEDRAL>
1.33913

>  <SCORE.SYSTEM.POLAR>
-2.21382

>  <SCORE.SYSTEM.VDW>
-1.8696

>  <SCORE.SYSTEM.norm>
-0.335655

>  <SCORE.heavy>
26

>  <SCORE.norm>
-0.857246

$$$$
S58.pdb
  rDOCK(R)          3D
libRbt.so/2013.1/901 2013/11/27
 28 30  0  0  0  0  0  0  0  0999 V2000
   25.7624   31.9712   27.5588 C   0  0  0  0  0  0
   25.5784   30.6220   27.5491 C   0  0  0  0  0  0
   24.5123   32.5633   27.0002 C   0  0  0  0  0  0
   24.2123   34.0011   26.6985 C   0  0  0  0  0  0
   23.5960   29.1904   27.1541 C   0  0  0  0  0  0
   22.3244   29.1778   26.5672 C   0  0  0  0  0  0
   21.5736   28.0118   26.5897 C   0  0  0  0  0  0
   22.1030   26.8520   27.2010 C   0  0  0  0  0  0
   23.3795   26.8679   27.7878 C   0  0  0  0  0  0
   24.1285   28.0469   27.7656 C   0  0  0  0  0  0
   26.6078   29.6231   27.9703 C   0  0  0  0  0  0
   26.8348   28.4739   27.1710 C   0  0  0  0  0  0
   27.8993   27.6032   27.4698 C   0  0  0  0  0  0
   28.7346   27.8740   28.5502 C   0  0  0  0  0  0
   28.4979   28.9894   29.3611 C   0  0  0  0  0  0
   27.4302   29.8714   29.0711 C   0  0  0  0  0  0
   24.3237   30.3479   27.0538 N   0  0  0  0  0  0
   23.6870   31.5875   26.7349 N   0  0  0  0  0  0
   19.8712   25.4929   28.4335 N   0  0  0  0  0  0
   21.9987   24.2147   27.5160 O   0  0  0  0  0  0
   20.5492   25.1337   25.9217 O   0  0  0  0  0  0
   30.2488   26.8490   28.8038 Br  0  0  0  0  0  0
   23.5655   34.0854   25.5091 F   0  0  0  0  0  0
   25.3490   34.7149   26.6976 F   0  0  0  0  0  0
   23.4065   34.4640   27.6608 F   0  0  0  0  0  0
   21.1294   25.3102   27.2233 S   0  0  0  0  0  0
   19.9725   25.0653   29.3066 H   0  0  0  0  0  0
   19.0700   26.0242   28.2361 H   0  0  0  0  0  0
  1  3  1  0  0  0
  2  1  2  0  0  0
  2 17  1  0  0  0
  3 18  2  0  0  0
  3  4  1  0  0  0
  4 23  1  0  0  0
  4 25  1  0  0  0
  5 17  1  0  0  0
  5  6  2  0  0  0
  7  6  1  0  0  0
  8  7  2  0  0  0
  9 10  2  0  0  0
  9  8  1  0  0  0
 10  5  1  0  0  0
 11  2  1  0  0  0
 12 11  1  0  0  0
 13 12  2  0  0  0
 14 15  2  0  0  0
 14 13  1  0  0  0
 15 16  1  0  0  0
 16 11  2  0  0  0
 17 18  1  0  0  0
 19 28  1  0  0  0
 20 26  2  0  0  0
 22 14  1  0  0  0
 24  4  1  0  0  0
 26  8  1  0  0  0
 26 19  1  0  0  0
 26 21  2  0  0  0
 27 19  1  0  0  0
M  END
>  <CHROM.0>
121.55414857,-78.28628341,170.64508359,-168.13219867,174.03841402,-58.36900954

>  <CHROM.1>
137.74287503,179.29713837,-134.89516442,-75.48771005,-102.21412398,25.12418799
28.87980089,27.58611981,-0.04469238,-0.20526313,-0.12690301

>  <FORMUL>
      S58    C16 H11 Br1 F3 N3 O2 S1

>  <HET>
 S58  A 701      28

>  <HETNAM>
     S58 1-PHENYLSULFONAMIDE-3-TRIFLUOROMETHYL-5-PARABROMOPHENYL
   2 S58 PYRAZOLE

>  <Name>
S58.pdb

>  <RI>
1.54999e+07

>  <Rbt.Current_Directory>
/home/malgorzata/Desktop/rDOCK_IFD/Wyniki/3_COX2/IFD

>  <Rbt.Executable>
rbdock ($Id: //depot/dev/client3/rdock/2013.1/src/exe/rbdock.cxx#4 $)

>  <Rbt.Library>
libRbt.so (2013.1, Build901 2013/11/27)

>  <Rbt.Parameter_File>
/home/malgorzata/Desktop/rDock_2013.1_src/data/scripts/dock.prm

>  <Rbt.Receptor>
cavity.prm

>  <SCORE>
-22.7464

>  <SCORE.INTER>
-11.1161

>  <SCORE.INTER.CONST>
1

>  <SCORE.INTER.POLAR>
-0.306499

>  <SCORE.INTER.REPUL>
0

>  <SCORE.INTER.ROT>
5

>  <SCORE.INTER.VDW>
-20.474

>  <SCORE.INTER.norm>
-0.427542

>  <SCORE.INTRA>
-2.69369

>  <SCORE.INTRA.DIHEDRAL>
-8.95946

>  <SCORE.INTRA.DIHEDRAL.0>
18.1022

>  <SCORE.INTRA.POLAR>
0

>  <SCORE.INTRA.POLAR.0>
0

>  <SCORE.INTRA.REPUL>
0

>  <SCORE.INTRA.REPUL.0>
0

>  <SCORE.INTRA.VDW>
1.78604

>  <SCORE.INTRA.VDW.0>
-2.81782

>  <SCORE.INTRA.norm>
-0.103603

>  <SCORE.RESTR>
0

>  <SCORE.RESTR.CAVITY>
0

>  <SCORE.RESTR.norm>
0

>  <SCORE.SYSTEM>
-8.93663

>  <SCORE.SYSTEM.CONST>
0

>  <SCORE.SYSTEM.DIHEDRAL>
1.65471

>  <SCORE.SYSTEM.POLAR>
-2.25779

>  <SCORE.SYSTEM.VDW>
-2.08751

>  <SCORE.SYSTEM.norm>
-0.343717

>  <SCORE.heavy>
26

>  <SCORE.norm>
-0.874862

$$$$
S58.pdb
  rDOCK(R)          3D
libRbt.so/2013.1/901 2013/11/27
 28 30  0  0  0  0  0  0  0  0999 V2000
   24.0294   29.7783   26.3878 C   0  0  0  0  0  0
   25.0885   30.0423   27.2019 C   0  0  0  0  0  0
   23.4109   31.0986   26.0722 C   0  0  0  0  0  0
   22.1613   31.3838   25.2940 C   0  0  0  0  0  0
   26.2368   32.1380   27.8536 C   0  0  0  0  0  0
   27.5212   31.7119   27.4924 C   0  0  0  0  0  0
   28.6234   32.4557   27.8867 C   0  0  0  0  0  0
   28.4354   33.6349   28.6441 C   0  0  0  0  0  0
   27.1455   34.0600   29.0036 C   0  0  0  0  0  0
   26.0400   33.3036   28.6070 C   0  0  0  0  0  0
   25.9672   28.9995   27.8148 C   0  0  0  0  0  0
   26.1506   27.7608   27.1493 C   0  0  0  0  0  0
   27.0885   26.8298   27.6330 C   0  0  0  0  0  0
   27.8418   27.1283   28.7652 C   0  0  0  0  0  0
   27.6442   28.3356   29.4442 C   0  0  0  0  0  0
   26.7035   29.2790   28.9679 C   0  0  0  0  0  0
   25.1765   31.4030   27.3898 N   0  0  0  0  0  0
   24.1185   32.0260   26.6578 N   0  0  0  0  0  0
   29.4380   36.3203   29.0060 N   0  0  0  0  0  0
   30.9925   34.2889   28.3287 O   0  0  0  0  0  0
   30.1734   34.3066   30.5234 O   0  0  0  0  0  0
   29.2137   25.9984   29.2643 Br  0  0  0  0  0  0
   21.1114   30.7610   25.8855 F   0  0  0  0  0  0
   22.3172   30.9925   24.0195 F   0  0  0  0  0  0
   21.9509   32.7045   25.3229 F   0  0  0  0  0  0
   29.8774   34.6274   29.1553 S   0  0  0  0  0  0
   30.1139   36.9751   28.7421 H   0  0  0  0  0  0
   28.5169   36.6086   29.1842 H   0  0  0  0  0  0
  1  3  1  0  0  0
  2  1  2  0  0  0
  2 17  1  0  0  0
  3 18  2  0  0  0
  3  4  1  0  0  0
  4 23  1  0  0  0
  4 25  1  0  0  0
  5 17  1  0  0  0
  5  6  2  0  0  0
  7  6  1  0  0  0
  8  7  2  0  0  0
  9 10  2  0  0  0
  9  8  1  0  0  0
 10  5  1  0  0  0
 11  2  1  0  0  0
 12 11  1  0  0  0
 13 12  2  0  0  0
 14 15  2  0  0  0
 14 13  1  0  0  0
 15 16  1  0  0  0
 16 11  2  0  0  0
 17 18  1  0  0  0
 19 28  1  0  0  0
 20 26  2  0  0  0
 22 14  1  0  0  0
 24  4  1  0  0  0
 26  8  1  0  0  0
 26 19  1  0  0  0
 26 21  2  0  0  0
 27 19  1  0  0  0
M  END
>  <CHROM.0>
-105.76885968,130.77575312,174.60661917,73.19647722,174.74016522,60.99904012

>  <CHROM.1>
58.59577775,35.48439436,28.67273759,140.88212684,-145.92002275,26.80906494
30.67226961,27.91233282,2.57098037,-0.47813985,-0.03789086

>  <FORMUL>
      S58    C16 H11 Br1 F3 N3 O2 S1

>  <HET>
 S58  A 701      28

>  <HETNAM>
     S58 1-PHENYLSULFONAMIDE-3-TRIFLUOROMETHYL-5-PARABROMOPHENYL
   2 S58 PYRAZOLE

>  <Name>
S58.pdb

>  <RI>
1.54999e+07

>  <Rbt.Current_Directory>
/home/malgorzata/Desktop/rDOCK_IFD/Wyniki/3_COX2/IFD

>  <Rbt.Executable>
rbdock ($Id: //depot/dev/client3/rdock/2013.1/src/exe/rbdock.cxx#4 $)

>  <Rbt.Library>
libRbt.so (2013.1, Build901 2013/11/27)

>  <Rbt.Parameter_File>
/home/malgorzata/Desktop/rDock_2013.1_src/data/scripts/dock.prm

>  <Rbt.Receptor>
cavity.prm

>  <SCORE>
-24.58

>  <SCORE.INTER>
-12.8861

>  <SCORE.INTER.CONST>
1

>  <SCORE.INTER.POLAR>
-0.848785

>  <SCORE.INTER.REPUL>
0

>  <SCORE.INTER.ROT>
5

>  <SCORE.INTER.VDW>
-20.4003

>  <SCORE.INTER.norm>
-0.495621

>  <SCORE.INTRA>
-2.755

>  <SCORE.INTRA.DIHEDRAL>
-6.61017

>  <SCORE.INTRA.DIHEDRAL.0>
18.1022

>  <SCORE.INTRA.POLAR>
0

>  <SCORE.INTRA.POLAR.0>
0

>  <SCORE.INTRA.REPUL>
0

>  <SCORE.INTRA.REPUL.0>
0

>  <SCORE.INTRA.VDW>
0.550084

>  <SCORE.INTRA.VDW.0>
-2.81782

>  <SCORE.INTRA.norm>
-0.105962

>  <SCORE.RESTR>
0

>  <SCORE.RESTR.CAVITY>
0

>  <SCORE.RESTR.norm>
0

>  <SCORE.SYSTEM>
-8.93888

>  <SCORE.SYSTEM.CONST>
0

>  <SCORE.SYSTEM.DIHEDRAL>
1.42692

>  <SCORE.SYSTEM.POLAR>
-2.30075

>  <SCORE.SYSTEM.VDW>
-1.82979

>  <SCORE.SYSTEM.norm>
-0.343803

>  <SCORE.heavy>
26

>  <SCORE.norm>
-0.945385

$$$$
S58.pdb
  rDOCK(R)          3D
libRbt.so/2013.1/901 2013/11/27
 28 30  0  0  0  0  0  0  0  0999 V2000
   24.1273   29.8656   26.4131 C   0  0  0  0  0  0
   25.2374   30.1157   27.1612 C   0  0  0  0  0  0
   23.4088   31.1672   26.2912 C   0  0  0  0  0  0
   22.0811   31.4460   25.6526 C   0  0  0  0  0  0
   26.3166   32.2063   27.9355 C   0  0  0  0  0  0
   27.5845   31.9133   27.4175 C   0  0  0  0  0  0
   28.6723   32.6856   27.7969 C   0  0  0  0  0  0
   28.4861   33.7594   28.6977 C   0  0  0  0  0  0
   27.2126   34.0513   29.2145 C   0  0  0  0  0  0
   26.1221   33.2665   28.8316 C   0  0  0  0  0  0
   26.2250   29.0769   27.5859 C   0  0  0  0  0  0
   27.0487   29.3158   28.7153 C   0  0  0  0  0  0
   27.8741   28.2929   29.2182 C   0  0  0  0  0  0
   27.8780   27.0415   28.6078 C   0  0  0  0  0  0
   27.0907   26.8082   27.4749 C   0  0  0  0  0  0
   26.2575   27.8292   26.9597 C   0  0  0  0  0  0
   25.2635   31.4533   27.4847 N   0  0  0  0  0  0
   24.1110   32.0756   26.9120 N   0  0  0  0  0  0
   29.4387   36.4702   29.0005 N   0  0  0  0  0  0
   31.0326   34.4516   28.3784 O   0  0  0  0  0  0
   30.2025   34.5064   30.5683 O   0  0  0  0  0  0
   28.7972   25.6502   29.3997 Br  0  0  0  0  0  0
   21.1171   31.4589   26.6068 F   0  0  0  0  0  0
   21.8288   30.5306   24.7039 F   0  0  0  0  0  0
   22.1429   32.6564   25.0864 F   0  0  0  0  0  0
   29.9075   34.7895   29.1918 S   0  0  0  0  0  0
   30.0939   37.1233   28.6851 H   0  0  0  0  0  0
   28.5219   36.7533   29.2067 H   0  0  0  0  0  0
  1  3  1  0  0  0
  2  1  2  0  0  0
  2 17  1  0  0  0
  3 18  2  0  0  0
  3  4  1  0  0  0
  4 23  1  0  0  0
  4 25  1  0  0  0
  5 17  1  0  0  0
  5  6  2  0  0  0
  7  6  1  0  0  0
  8  7  2  0  0  0
  9 10  2  0  0  0
  9  8  1  0  0  0
 10  5  1  0  0  0
 11  2  1  0  0  0
 12 11  1  0  0  0
 13 12  2  0  0  0
 14 15  2  0  0  0
 14 13  1  0  0  0
 15 16  1  0  0  0
 16 11  2  0  0  0
 17 18  1  0  0  0
 19 28  1  0  0  0
 20 26  2  0  0  0
 22 14  1  0  0  0
 24  4  1  0  0  0
 26  8  1  0  0  0
 26 19  1  0  0  0
 26 21  2  0  0  0
 27 19  1  0  0  0
M  END
>  <CHROM.0>
-104.85421853,170.62271603,175.77402144,-166.83167249,55.94159109,61.85564224

>  <CHROM.1>
96.73095399,36.08305381,-157.56012055,130.98908263,-143.15143560,26.77289545
30.67647214,27.99529395,1.44028103,0.45520367,3.09544876

>  <FORMUL>
      S58    C16 H11 Br1 F3 N3 O2 S1

>  <HET>
 S58  A 701      28

>  <HETNAM>
     S58 1-PHENYLSULFONAMIDE-3-TRIFLUOROMETHYL-5-PARABROMOPHENYL
   2 S58 PYRAZOLE

>  <Name>
S58.pdb

>  <RI>
1.54999e+07

>  <Rbt.Current_Directory>
/home/malgorzata/Desktop/rDOCK_IFD/Wyniki/3_COX2/IFD

>  <Rbt.Executable>
rbdock ($Id: //depot/dev/client3/rdock/2013.1/src/exe/rbdock.cxx#4 $)

>  <Rbt.Library>
libRbt.so (2013.1, Build901 2013/11/27)

>  <Rbt.Parameter_File>
/home/malgorzata/Desktop/rDock_2013.1_src/data/scripts/dock.prm

>  <Rbt.Receptor>
cavity.prm

>  <SCORE>
-23.4236

>  <SCORE.INTER>
-11.41

>  <SCORE.INTER.CONST>
1

>  <SCORE.INTER.POLAR>
-0.658675

>  <SCORE.INTER.REPUL>
0

>  <SCORE.INTER.ROT>
5

>  <SCORE.INTER.VDW>
-19.5705

>  <SCORE.INTER.norm>
-0.438845

>  <SCORE.INTRA>
-3.00851

>  <SCORE.INTRA.DIHEDRAL>
-7.38463

>  <SCORE.INTRA.DIHEDRAL.0>
18.1022

>  <SCORE.INTRA.POLAR>
0

>  <SCORE.INTRA.POLAR.0>
0

>  <SCORE.INTRA.REPUL>
0

>  <SCORE.INTRA.REPUL.0>
0

>  <SCORE.INTRA.VDW>
0.683808

>  <SCORE.INTRA.VDW.0>
-2.81782

>  <SCORE.INTRA.norm>
-0.115712

>  <SCORE.RESTR>
0

>  <SCORE.RESTR.CAVITY>
0

>  <SCORE.RESTR.norm>
0

>  <SCORE.SYSTEM>
-9.00515

>  <SCORE.SYSTEM.CONST>
0

>  <SCORE.SYSTEM.DIHEDRAL>
1.34901

>  <SCORE.SYSTEM.POLAR>
-2.27167

>  <SCORE.SYSTEM.VDW>
-1.95597

>  <SCORE.SYSTEM.norm>
-0.346352

>  <SCORE.heavy>
26

>  <SCORE.norm>
-0.900909

$$$$
S58.pdb
  rDOCK(R)          3D
libRbt.so/2013.1/901 2013/11/27
 28 30  0  0  0  0  0  0  0  0999 V2000
   24.3054   29.4060   26.5941 C   0  0  0  0  0  0
   25.3511   29.7754   27.3842 C   0  0  0  0  0  0
   23.6108   30.6690   26.2098 C   0  0  0  0  0  0
   22.3436   30.8381   25.4261 C   0  0  0  0  0  0
   26.3799   31.9666   27.9090 C   0  0  0  0  0  0
   27.6752   31.4337   27.9061 C   0  0  0  0  0  0
   28.7464   32.2408   28.2591 C   0  0  0  0  0  0
   28.5170   33.5903   28.6132 C   0  0  0  0  0  0
   27.2165   34.1220   28.6138 C   0  0  0  0  0  0
   26.1416   33.3022   28.2616 C   0  0  0  0  0  0
   26.2907   28.8207   28.0479 C   0  0  0  0  0  0
   26.6673   29.0354   29.3981 C   0  0  0  0  0  0
   27.4278   28.0693   30.0828 C   0  0  0  0  0  0
   27.8070   26.8973   29.4338 C   0  0  0  0  0  0
   27.4648   26.6928   28.0926 C   0  0  0  0  0  0
   26.7013   27.6573   27.3936 C   0  0  0  0  0  0
   25.3616   31.1474   27.4950 N   0  0  0  0  0  0
   24.2665   31.6668   26.7372 N   0  0  0  0  0  0
   31.3590   34.0079   28.3025 N   0  0  0  0  0  0
   30.0388   34.7007   30.4886 O   0  0  0  0  0  0
   29.6477   35.9826   28.5673 O   0  0  0  0  0  0
   28.6163   25.5482   30.3995 Br  0  0  0  0  0  0
   22.4760   30.2302   24.2207 F   0  0  0  0  0  0
   22.0574   32.1429   25.2957 F   0  0  0  0  0  0
   21.3576   30.2402   26.1042 F   0  0  0  0  0  0
   29.9204   34.6636   29.0652 S   0  0  0  0  0  0
   32.0538   33.5952   28.8522 H   0  0  0  0  0  0
   31.4648   34.0528   27.3278 H   0  0  0  0  0  0
  1  3  1  0  0  0
  2  1  2  0  0  0
  2 17  1  0  0  0
  3 18  2  0  0  0
  3  4  1  0  0  0
  4 23  1  0  0  0
  4 25  1  0  0  0
  5 17  1  0  0  0
  5  6  2  0  0  0
  7  6  1  0  0  0
  8  7  2  0  0  0
  9 10  2  0  0  0
  9  8  1  0  0  0
 10  5  1  0  0  0
 11  2  1  0  0  0
 12 11  1  0  0  0
 13 12  2  0  0  0
 14 15  2  0  0  0
 14 13  1  0  0  0
 15 16  1  0  0  0
 16 11  2  0  0  0
 17 18  1  0  0  0
 19 28  1  0  0  0
 20 26  2  0  0  0
 22 14  1  0  0  0
 24  4  1  0  0  0
 26  8  1  0  0  0
 26 19  1  0  0  0
 26 21  2  0  0  0
 27 19  1  0  0  0
M  END
>  <CHROM.0>
-94.61018647,175.05899770,174.87057177,72.07314793,53.85346066,-57.78859278

>  <CHROM.1>
-56.92133220,17.94016355,-136.28077703,24.82662949,-110.34135819,26.82772591
30.38962492,28.20924060,1.49288668,0.52241161,2.94216050

>  <FORMUL>
      S58    C16 H11 Br1 F3 N3 O2 S1

>  <HET>
 S58  A 701      28

>  <HETNAM>
     S58 1-PHENYLSULFONAMIDE-3-TRIFLUOROMETHYL-5-PARABROMOPHENYL
   2 S58 PYRAZOLE

>  <Name>
S58.pdb

>  <RI>
1.54999e+07

>  <Rbt.Current_Directory>
/home/malgorzata/Desktop/rDOCK_IFD/Wyniki/3_COX2/IFD

>  <Rbt.Executable>
rbdock ($Id: //depot/dev/client3/rdock/2013.1/src/exe/rbdock.cxx#4 $)

>  <Rbt.Library>
libRbt.so (2013.1, Build901 2013/11/27)

>  <Rbt.Parameter_File>
/home/malgorzata/Desktop/rDock_2013.1_src/data/scripts/dock.prm

>  <Rbt.Receptor>
cavity.prm

>  <SCORE>
-23.4751

>  <SCORE.INTER>
-11.5921

>  <SCORE.INTER.CONST>
1

>  <SCORE.INTER.POLAR>
-0.905093

>  <SCORE.INTER.REPUL>
0

>  <SCORE.INTER.ROT>
5

>  <SCORE.INTER.VDW>
-18.9147

>  <SCORE.INTER.norm>
-0.445848

>  <SCORE.INTRA>
-2.78549

>  <SCORE.INTRA.DIHEDRAL>
-7.04221

>  <SCORE.INTRA.DIHEDRAL.0>
18.1022

>  <SCORE.INTRA.POLAR>
0

>  <SCORE.INTRA.POLAR.0>
0

>  <SCORE.INTRA.REPUL>
0

>  <SCORE.INTRA.REPUL.0>
0

>  <SCORE.INTRA.VDW>
0.735617

>  <SCORE.INTRA.VDW.0>
-2.81782

>  <SCORE.INTRA.norm>
-0.107134

>  <SCORE.RESTR>
0

>  <SCORE.RESTR.CAVITY>
0

>  <SCORE.RESTR.norm>
0

>  <SCORE.SYSTEM>
-9.09751

>  <SCORE.SYSTEM.CONST>
0

>  <SCORE.SYSTEM.DIHEDRAL>
1.38225

>  <SCORE.SYSTEM.POLAR>
-2.28799

>  <SCORE.SYSTEM.VDW>
-2.00948

>  <SCORE.SYSTEM.norm>
-0.349904

>  <SCORE.heavy>
26

>  <SCORE.norm>
-0.902887

$$$$
S58.pdb
  rDOCK(R)          3D
libRbt.so/2013.1/901 2013/11/27
 28 30  0  0  0  0  0  0  0  0999 V2000
   23.9761   31.4930   27.0052 C   0  0  0  0  0  0
   25.2255   31.1078   27.3860 C   0  0  0  0  0  0
   23.2310   30.2372   26.7002 C   0  0  0  0  0  0
   21.8452   30.0826   26.1485 C   0  0  0  0  0  0
   26.2171   28.9088   27.9482 C   0  0  0  0  0  0
   26.7249   29.3005   29.1934 C   0  0  0  0  0  0
   27.6148   28.4710   29.8594 C   0  0  0  0  0  0
   27.9941   27.2409   29.2747 C   0  0  0  0  0  0
   27.4819   26.8505   28.0261 C   0  0  0  0  0  0
   26.5894   27.6928   27.3585 C   0  0  0  0  0  0
   26.3350   32.0491   27.7289 C   0  0  0  0  0  0
   26.0299   33.3113   28.2988 C   0  0  0  0  0  0
   27.0628   34.1454   28.7655 C   0  0  0  0  0  0
   28.3877   33.7275   28.6717 C   0  0  0  0  0  0
   28.6978   32.4968   28.0829 C   0  0  0  0  0  0
   27.6679   31.6501   27.6093 C   0  0  0  0  0  0
   25.2951   29.7334   27.3572 N   0  0  0  0  0  0
   24.0257   29.2289   26.9359 N   0  0  0  0  0  0
   30.3190   25.5518   28.9747 N   0  0  0  0  0  0
   28.4161   25.0697   30.7492 O   0  0  0  0  0  0
   29.8117   26.9039   31.1685 O   0  0  0  0  0  0
   29.7127   34.7294   29.4770 Br  0  0  0  0  0  0
   21.1619   31.2421   26.3183 F   0  0  0  0  0  0
   21.2282   29.0505   26.7447 F   0  0  0  0  0  0
   21.9495   29.8319   24.8387 F   0  0  0  0  0  0
   29.1528   26.1368   30.1490 S   0  0  0  0  0  0
   31.0977   25.0440   29.2765 H   0  0  0  0  0  0
   30.1891   25.7312   28.0186 H   0  0  0  0  0  0
  1  3  1  0  0  0
  2  1  2  0  0  0
  2 17  1  0  0  0
  3 18  2  0  0  0
  3  4  1  0  0  0
  4 23  1  0  0  0
  4 25  1  0  0  0
  5 17  1  0  0  0
  5  6  2  0  0  0
  7  6  1  0  0  0
  8  7  2  0  0  0
  9 10  2  0  0  0
  9  8  1  0  0  0
 10  5  1  0  0  0
 11  2  1  0  0  0
 12 11  1  0  0  0
 13 12  2  0  0  0
 14 15  2  0  0  0
 14 13  1  0  0  0
 15 16  1  0  0  0
 16 11  2  0  0  0
 17 18  1  0  0  0
 19 28  1  0  0  0
 20 26  2  0  0  0
 22 14  1  0  0  0
 24  4  1  0  0  0
 26  8  1  0  0  0
 26 19  1  0  0  0
 26 21  2  0  0  0
 27 19  1  0  0  0
M  END
>  <CHROM.0>
-112.10646072,-76.84280014,175.13965131,72.97405403,-63.19949172,-177.01734068

>  <CHROM.1>
-18.33165204,35.16842948,30.68934294,-135.95084884,171.48758366,26.75996263
30.34192105,28.35787089,2.83488758,0.45270460,3.05321748

>  <FORMUL>
      S58    C16 H11 Br1 F3 N3 O2 S1

>  <HET>
 S58  A 701      28

>  <HETNAM>
     S58 1-PHENYLSULFONAMIDE-3-TRIFLUOROMETHYL-5-PARABROMOPHENYL
   2 S58 PYRAZOLE

>  <Name>
S58.pdb

>  <RI>
1.54999e+07

>  <Rbt.Current_Directory>
/home/malgorzata/Desktop/rDOCK_IFD/Wyniki/3_COX2/IFD

>  <Rbt.Executable>
rbdock ($Id: //depot/dev/client3/rdock/2013.1/src/exe/rbdock.cxx#4 $)

>  <Rbt.Library>
libRbt.so (2013.1, Build901 2013/11/27)

>  <Rbt.Parameter_File>
/home/malgorzata/Desktop/rDock_2013.1_src/data/scripts/dock.prm

>  <Rbt.Receptor>
cavity.prm

>  <SCORE>
-23.0793

>  <SCORE.INTER>
-11.53

>  <SCORE.INTER.CONST>
1

>  <SCORE.INTER.POLAR>
-0.993694

>  <SCORE.INTER.REPUL>
0.0516809

>  <SCORE.INTER.ROT>
5

>  <SCORE.INTER.VDW>
-18.8098

>  <SCORE.INTER.norm>
-0.443462

>  <SCORE.INTRA>
-2.7453

>  <SCORE.INTRA.DIHEDRAL>
-6.32377

>  <SCORE.INTRA.DIHEDRAL.0>
18.1022

>  <SCORE.INTRA.POLAR>
0

>  <SCORE.INTRA.POLAR.0>
0

>  <SCORE.INTRA.REPUL>
0

>  <SCORE.INTRA.REPUL.0>
0

>  <SCORE.INTRA.VDW>
0.416588

>  <SCORE.INTRA.VDW.0>
-2.81782

>  <SCORE.INTRA.norm>
-0.105588

>  <SCORE.RESTR>
0

>  <SCORE.RESTR.CAVITY>
0

>  <SCORE.RESTR.norm>
0

>  <SCORE.SYSTEM>
-8.80403

>  <SCORE.SYSTEM.CONST>
0

>  <SCORE.SYSTEM.DIHEDRAL>
1.36384

>  <SCORE.SYSTEM.POLAR>
-2.29826

>  <SCORE.SYSTEM.VDW>
-1.67186

>  <SCORE.SYSTEM.norm>
-0.338616

>  <SCORE.heavy>
26

>  <SCORE.norm>
-0.887666

$$$$
S58.pdb
  rDOCK(R)          3D
libRbt.so/2013.1/901 2013/11/27
 28 30  0  0  0  0  0  0  0  0999 V2000
   24.0713   29.4255   26.4890 C   0  0  0  0  0  0
   25.1468   29.7681   27.2506 C   0  0  0  0  0  0
   23.4597   30.7084   26.0359 C   0  0  0  0  0  0
   22.1994   30.9176   25.2508 C   0  0  0  0  0  0
   26.3256   31.9111   27.6419 C   0  0  0  0  0  0
   26.0620   33.2098   28.0953 C   0  0  0  0  0  0
   27.1106   34.0079   28.5278 C   0  0  0  0  0  0
   28.4296   33.4990   28.5087 C   0  0  0  0  0  0
   28.6902   32.1953   28.0544 C   0  0  0  0  0  0
   27.6300   31.3983   27.6159 C   0  0  0  0  0  0
   26.0264   28.7916   27.9634 C   0  0  0  0  0  0
   26.4095   27.5913   27.3125 C   0  0  0  0  0  0
   27.3546   26.7347   27.9068 C   0  0  0  0  0  0
   27.9187   27.0695   29.1349 C   0  0  0  0  0  0
   27.5227   28.2369   29.7969 C   0  0  0  0  0  0
   26.5726   29.1054   29.2096 C   0  0  0  0  0  0
   25.2507   31.1402   27.2817 N   0  0  0  0  0  0
   24.1859   31.6882   26.5010 N   0  0  0  0  0  0
   31.2776   33.9471   28.3200 N   0  0  0  0  0  0
   29.8883   34.4580   30.5133 O   0  0  0  0  0  0
   29.5495   35.8899   28.6905 O   0  0  0  0  0  0
   29.3081   26.0528   29.8010 Br  0  0  0  0  0  0
   21.1860   30.2318   25.8362 F   0  0  0  0  0  0
   22.3859   30.5374   23.9771 F   0  0  0  0  0  0
   21.9089   32.2230   25.2790 F   0  0  0  0  0  0
   29.8134   34.5356   29.0886 S   0  0  0  0  0  0
   31.3873   34.0372   27.3529 H   0  0  0  0  0  0
   31.9849   33.5315   28.8586 H   0  0  0  0  0  0
  1  3  1  0  0  0
  2  1  2  0  0  0
  2 17  1  0  0  0
  3 18  2  0  0  0
  3  4  1  0  0  0
  4 23  1  0  0  0
  4 25  1  0  0  0
  5 17  1  0  0  0
  5  6  2  0  0  0
  7  6  1  0  0  0
  8  7  2  0  0  0
  9 10  2  0  0  0
  9  8  1  0  0  0
 10  5  1  0  0  0
 11  2  1  0  0  0
 12 11  1  0  0  0
 13 12  2  0  0  0
 14 15  2  0  0  0
 14 13  1  0  0  0
 15 16  1  0  0  0
 16 11  2  0  0  0
 17 18  1  0  0  0
 19 28  1  0  0  0
 20 26  2  0  0  0
 22 14  1  0  0  0
 24  4  1  0  0  0
 26  8  1  0  0  0
 26 19  1  0  0  0
 26 21  2  0  0  0
 27 19  1  0  0  0
M  END
>  <CHROM.0>
-89.21370316,-85.42350626,175.89115426,73.14750604,55.17010619,62.28672819

>  <CHROM.1>
50.79301173,-155.43498090,41.61990819,-155.84170526,66.69405152,26.86034585
30.47456493,27.99326370,2.78495902,-0.49925212,-0.11225305

>  <FORMUL>
      S58    C16 H11 Br1 F3 N3 O2 S1

>  <HET>
 S58  A 701      28

>  <HETNAM>
     S58 1-PHENYLSULFONAMIDE-3-TRIFLUOROMETHYL-5-PARABROMOPHENYL
   2 S58 PYRAZOLE

>  <Name>
S58.pdb

>  <RI>
1.54999e+07

>  <Rbt.Current_Directory>
/home/malgorzata/Desktop/rDOCK_IFD/Wyniki/3_COX2/IFD

>  <Rbt.Executable>
rbdock ($Id: //depot/dev/client3/rdock/2013.1/src/exe/rbdock.cxx#4 $)

>  <Rbt.Library>
libRbt.so (2013.1, Build901 2013/11/27)

>  <Rbt.Parameter_File>
/home/malgorzata/Desktop/rDock_2013.1_src/data/scripts/dock.prm

>  <Rbt.Receptor>
cavity.prm

>  <SCORE>
-24.4424

>  <SCORE.INTER>
-12.8864

>  <SCORE.INTER.CONST>
1

>  <SCORE.INTER.POLAR>
-0.954552

>  <SCORE.INTER.REPUL>
0

>  <SCORE.INTER.ROT>
5

>  <SCORE.INTER.VDW>
-20.0409

>  <SCORE.INTER.norm>
-0.495631

>  <SCORE.INTRA>
-2.76827

>  <SCORE.INTRA.DIHEDRAL>
-6.36938

>  <SCORE.INTRA.DIHEDRAL.0>
18.1022

>  <SCORE.INTRA.POLAR>
0

>  <SCORE.INTRA.POLAR.0>
0

>  <SCORE.INTRA.REPUL>
0

>  <SCORE.INTRA.REPUL.0>
0

>  <SCORE.INTRA.VDW>
0.416422

>  <SCORE.INTRA.VDW.0>
-2.81782

>  <SCORE.INTRA.norm>
-0.106472

>  <SCORE.RESTR>
0

>  <SCORE.RESTR.CAVITY>
0

>  <SCORE.RESTR.norm>
0

>  <SCORE.SYSTEM>
-8.78775

>  <SCORE.SYSTEM.CONST>
0

>  <SCORE.SYSTEM.DIHEDRAL>
1.36395

>  <SCORE.SYSTEM.POLAR>
-2.3002

>  <SCORE.SYSTEM.VDW>
-1.64904

>  <SCORE.SYSTEM.norm>
-0.337991

>  <SCORE.heavy>
26

>  <SCORE.norm>
-0.940093

$$$$
S58.pdb
  rDOCK(R)          3D
libRbt.so/2013.1/901 2013/11/27
 28 30  0  0  0  0  0  0  0  0999 V2000
   24.4872   29.1087   26.7478 C   0  0  0  0  0  0
   25.5574   29.5634   27.4564 C   0  0  0  0  0  0
   23.7518   30.3214   26.2852 C   0  0  0  0  0  0
   22.4498   30.4000   25.5457 C   0  0  0  0  0  0
   26.5630   31.8089   27.7425 C   0  0  0  0  0  0
   26.3052   32.7987   28.6993 C   0  0  0  0  0  0
   27.3209   33.6643   29.0770 C   0  0  0  0  0  0
   28.6025   33.5336   28.4943 C   0  0  0  0  0  0
   28.8580   32.5388   27.5357 C   0  0  0  0  0  0
   27.8292   31.6731   27.1565 C   0  0  0  0  0  0
   26.5431   28.6864   28.1594 C   0  0  0  0  0  0
   26.7030   27.3404   27.7426 C   0  0  0  0  0  0
   27.7282   26.5471   28.2903 C   0  0  0  0  0  0
   28.5908   27.0872   29.2403 C   0  0  0  0  0  0
   28.4198   28.4050   29.6784 C   0  0  0  0  0  0
   27.3921   29.2120   29.1356 C   0  0  0  0  0  0
   25.5450   30.9398   27.4464 N   0  0  0  0  0  0
   24.4088   31.3724   26.6944 N   0  0  0  0  0  0
   31.4406   34.0411   28.3059 N   0  0  0  0  0  0
   30.0010   34.7156   30.4213 O   0  0  0  0  0  0
   29.6559   35.9612   28.4676 O   0  0  0  0  0  0
   30.0571   26.1106   29.7918 Br  0  0  0  0  0  0
   21.9037   31.6285   25.7263 F   0  0  0  0  0  0
   21.6274   29.4246   25.9628 F   0  0  0  0  0  0
   22.7050   30.2292   24.2437 F   0  0  0  0  0  0
   29.9485   34.6579   28.9946 S   0  0  0  0  0  0
   32.1197   33.6514   28.8909 H   0  0  0  0  0  0
   31.5920   34.0847   27.3372 H   0  0  0  0  0  0
  1  3  1  0  0  0
  2  1  2  0  0  0
  2 17  1  0  0  0
  3 18  2  0  0  0
  3  4  1  0  0  0
  4 23  1  0  0  0
  4 25  1  0  0  0
  5 17  1  0  0  0
  5  6  2  0  0  0
  7  6  1  0  0  0
  8  7  2  0  0  0
  9 10  2  0  0  0
  9  8  1  0  0  0
 10  5  1  0  0  0
 11  2  1  0  0  0
 12 11  1  0  0  0
 13 12  2  0  0  0
 14 15  2  0  0  0
 14 13  1  0  0  0
 15 16  1  0  0  0
 16 11  2  0  0  0
 17 18  1  0  0  0
 19 28  1  0  0  0
 20 26  2  0  0  0
 22 14  1  0  0  0
 24  4  1  0  0  0
 26  8  1  0  0  0
 26 19  1  0  0  0
 26 21  2  0  0  0
 27 19  1  0  0  0
M  END
>  <CHROM.0>
-82.61113179,155.13809461,175.42190079,-165.96636863,53.15240584,60.15786044

>  <CHROM.1>
158.60065129,-126.90886231,22.78118619,170.05567667,-109.83787591,27.24060798
30.36779383,28.08159475,2.92650016,-0.46273192,-0.08630345

>  <FORMUL>
      S58    C16 H11 Br1 F3 N3 O2 S1

>  <HET>
 S58  A 701      28

>  <HETNAM>
     S58 1-PHENYLSULFONAMIDE-3-TRIFLUOROMETHYL-5-PARABROMOPHENYL
   2 S58 PYRAZOLE

>  <Name>
S58.pdb

>  <RI>
1.54999e+07

>  <Rbt.Current_Directory>
/home/malgorzata/Desktop/rDOCK_IFD/Wyniki/3_COX2/IFD

>  <Rbt.Executable>
rbdock ($Id: //depot/dev/client3/rdock/2013.1/src/exe/rbdock.cxx#4 $)

>  <Rbt.Library>
libRbt.so (2013.1, Build901 2013/11/27)

>  <Rbt.Parameter_File>
/home/malgorzata/Desktop/rDock_2013.1_src/data/scripts/dock.prm

>  <Rbt.Receptor>
cavity.prm

>  <SCORE>
-24.5891

>  <SCORE.INTER>
-13.49

>  <SCORE.INTER.CONST>
1

>  <SCORE.INTER.POLAR>
-0.984106

>  <SCORE.INTER.REPUL>
0

>  <SCORE.INTER.ROT>
5

>  <SCORE.INTER.VDW>
-20.544

>  <SCORE.INTER.norm>
-0.518845

>  <SCORE.INTRA>
-2.15268

>  <SCORE.INTRA.DIHEDRAL>
-4.04509

>  <SCORE.INTRA.DIHEDRAL.0>
18.1022

>  <SCORE.INTRA.POLAR>
0

>  <SCORE.INTRA.POLAR.0>
0

>  <SCORE.INTRA.REPUL>
0

>  <SCORE.INTRA.REPUL.0>
0

>  <SCORE.INTRA.VDW>
-0.130138

>  <SCORE.INTRA.VDW.0>
-2.81782

>  <SCORE.INTRA.norm>
-0.0827955

>  <SCORE.RESTR>
0

>  <SCORE.RESTR.CAVITY>
0

>  <SCORE.RESTR.norm>
0

>  <SCORE.SYSTEM>
-8.94647

>  <SCORE.SYSTEM.CONST>
0

>  <SCORE.SYSTEM.DIHEDRAL>
1.48306

>  <SCORE.SYSTEM.POLAR>
-2.27533

>  <SCORE.SYSTEM.VDW>
-1.95189

>  <SCORE.SYSTEM.norm>
-0.344095

>  <SCORE.heavy>
26

>  <SCORE.norm>
-0.945736

$$$$
