BRL.pdb
  rDOCK(R)          3D
libRbt.so/2013.1/901 2013/11/27
 26 28  0  0  0  0  0  0  0  0999 V2000
   11.0818   -3.2427    5.7890 S   0  0  0  0  0  0
   11.3497   -1.8882    3.5004 O   0  0  0  0  0  0
    8.8819   -0.1324    6.7923 O   0  0  0  0  0  0
   12.0345   -6.3218   12.0384 O   0  0  0  0  0  0
   10.1225   -0.8400    5.0242 N   0  0  0  0  0  0
   13.8407   -8.0911   13.2971 N   0  0  0  0  0  0
   13.7568   -9.2400   10.9574 N   0  0  0  0  0  0
   10.8452   -1.8741    4.6226 C   0  0  0  0  0  0
    9.6495   -0.9592    6.2726 C   0  0  0  0  0  0
   10.1039   -2.2353    6.9950 C   0  0  0  0  0  0
   10.8544   -1.9950    8.3730 C   0  0  0  0  0  0
   11.1417   -3.1930    9.2563 C   0  0  0  0  0  0
   12.4877   -3.7166    9.4584 C   0  0  0  0  0  0
   12.7007   -4.7696   10.3979 C   0  0  0  0  0  0
   11.5959   -5.3337   11.1405 C   0  0  0  0  0  0
   10.2388   -4.8525   10.8653 C   0  0  0  0  0  0
   10.0136   -3.7894    9.9347 C   0  0  0  0  0  0
   11.5283   -6.7730   13.3451 C   0  0  0  0  0  0
   12.3485   -8.0497   13.6255 C   0  0  0  0  0  0
   14.5947   -7.3348   14.4007 C   0  0  0  0  0  0
   14.5144   -8.6820   11.9785 C   0  0  0  0  0  0
   14.2682   -9.7369    9.7996 C   0  0  0  0  0  0
   15.6942   -9.7173    9.5559 C   0  0  0  0  0  0
   16.5558   -9.1662   10.5581 C   0  0  0  0  0  0
   15.9774   -8.6510   11.7671 C   0  0  0  0  0  0
    9.9483   -0.0544    4.4571 H   0  0  0  0  0  0
  1  8  1  0  0  0
  1 10  1  0  0  0
  2  8  2  0  0  0
  3  9  2  0  0  0
  4 15  1  0  0  0
  4 18  1  0  0  0
  5  8  1  0  0  0
  5  9  1  0  0  0
  5 26  1  0  0  0
  6 19  1  0  0  0
  6 20  1  0  0  0
  6 21  1  0  0  0
  7 21  2  0  0  0
  7 22  1  0  0  0
  9 10  1  0  0  0
 10 11  1  0  0  0
 11 12  1  0  0  0
 12 13  2  0  0  0
 12 17  1  0  0  0
 13 14  1  0  0  0
 14 15  2  0  0  0
 15 16  1  0  0  0
 16 17  2  0  0  0
 18 19  1  0  0  0
 21 25  1  0  0  0
 22 23  2  0  0  0
 23 24  1  0  0  0
 24 25  2  0  0  0
M  END
>  <CHROM.0>
-97.34827047,-177.40117664,-179.69741981,122.63101085

>  <CHROM.1>
149.58186250,170.21354250,77.89277633,0.07656425,-65.07447345,109.37586548
41.00823602,12.16145781,-5.08140850,9.37945328,-2.18936681,-0.82988539,1.91027229

>  <FORMUL>
      BRL    C18 H19 N3 O3 S1

>  <HET>
 BRL  A   1      25

>  <HETNAM>
     BRL 2,4-THIAZOLIDIINEDIONE, 5-[[4-[2-(METHYL-2-PYRIDINYLAMI
   2 BRL NO)ETHOXY]PHENYL]METHYL]-(9CL)

>  <HETSYN>
     BRL BRL49653; ROSIGLITAZONE

>  <Name>
BRL.pdb

>  <RI>
0

>  <Rbt.Current_Directory>
/home/malgorzata/Desktop/rDOCK_IFD/test13/IFD

>  <Rbt.Executable>
rbdock ($Id: //depot/dev/client3/rdock/2013.1/src/exe/rbdock.cxx#4 $)

>  <Rbt.Library>
libRbt.so (2013.1, Build901 2013/11/27)

>  <Rbt.Parameter_File>
/home/malgorzata/Desktop/rDock_2013.1_src/data/scripts/hard_docking.prm

>  <Rbt.Receptor>
cavity.prm

>  <SCORE>
-13.017

>  <SCORE.INTER>
-14.4492

>  <SCORE.INTER.CONST>
1

>  <SCORE.INTER.POLAR>
0

>  <SCORE.INTER.REPUL>
0.00153764

>  <SCORE.INTER.ROT>
7

>  <SCORE.INTER.VDW>
-26.8569

>  <SCORE.INTER.norm>
-0.577969

>  <SCORE.INTRA>
0.749492

>  <SCORE.INTRA.DIHEDRAL>
1.0465

>  <SCORE.INTRA.DIHEDRAL.0>
5.55665

>  <SCORE.INTRA.POLAR>
0

>  <SCORE.INTRA.POLAR.0>
0

>  <SCORE.INTRA.REPUL>
0

>  <SCORE.INTRA.REPUL.0>
0

>  <SCORE.INTRA.VDW>
0.22624

>  <SCORE.INTRA.VDW.0>
-2.56587

>  <SCORE.INTRA.norm>
0.0299797

>  <SCORE.RESTR>
0

>  <SCORE.RESTR.CAVITY>
0

>  <SCORE.RESTR.norm>
0

>  <SCORE.SYSTEM>
0.682714

>  <SCORE.SYSTEM.CONST>
0

>  <SCORE.SYSTEM.DIHEDRAL>
3.81368

>  <SCORE.SYSTEM.REPUL>
0.00529598

>  <SCORE.SYSTEM.VDW>
-1.25061

>  <SCORE.SYSTEM.norm>
0.0273086

>  <SCORE.heavy>
25

>  <SCORE.norm>
-0.520681

$$$$
BRL.pdb
  rDOCK(R)          3D
libRbt.so/2013.1/901 2013/11/27
 26 28  0  0  0  0  0  0  0  0999 V2000
   11.1933   -5.9090    1.9178 S   0  0  0  0  0  0
    9.9134   -6.0890    4.2574 O   0  0  0  0  0  0
    9.8488   -9.5844    1.4669 O   0  0  0  0  0  0
   16.3892   -4.2664   -1.2477 O   0  0  0  0  0  0
    9.7999   -7.9342    3.0290 N   0  0  0  0  0  0
   14.0671   -2.4121   -1.1403 N   0  0  0  0  0  0
   14.7597   -2.6898    1.3585 N   0  0  0  0  0  0
   10.1985   -6.6863    3.2201 C   0  0  0  0  0  0
   10.1963   -8.4590    1.8611 C   0  0  0  0  0  0
   11.0856   -7.5272    1.0260 C   0  0  0  0  0  0
   12.5015   -8.1269    0.6315 C   0  0  0  0  0  0
   13.5526   -7.1877    0.0738 C   0  0  0  0  0  0
   13.2625   -6.2151   -0.9733 C   0  0  0  0  0  0
   14.2672   -5.2803   -1.3651 C   0  0  0  0  0  0
   15.5740   -5.2960   -0.7471 C   0  0  0  0  0  0
   15.8758   -6.3324    0.2448 C   0  0  0  0  0  0
   14.8735   -7.2675    0.6546 C   0  0  0  0  0  0
   16.2346   -3.3369   -2.3788 C   0  0  0  0  0  0
   15.4367   -2.1637   -1.7718 C   0  0  0  0  0  0
   13.0046   -2.3031   -2.2438 C   0  0  0  0  0  0
   13.7494   -2.6101    0.4094 C   0  0  0  0  0  0
   14.5540   -2.8328    2.6950 C   0  0  0  0  0  0
   13.2119   -2.9194    3.2287 C   0  0  0  0  0  0
   12.1056   -2.8534    2.3220 C   0  0  0  0  0  0
   12.3641   -2.7018    0.9177 C   0  0  0  0  0  0
    9.2610   -8.4319    3.6856 H   0  0  0  0  0  0
  1  8  1  0  0  0
  1 10  1  0  0  0
  2  8  2  0  0  0
  3  9  2  0  0  0
  4 15  1  0  0  0
  4 18  1  0  0  0
  5  8  1  0  0  0
  5  9  1  0  0  0
  5 26  1  0  0  0
  6 19  1  0  0  0
  6 20  1  0  0  0
  6 21  1  0  0  0
  7 21  2  0  0  0
  7 22  1  0  0  0
  9 10  1  0  0  0
 10 11  1  0  0  0
 11 12  1  0  0  0
 12 13  2  0  0  0
 12 17  1  0  0  0
 13 14  1  0  0  0
 14 15  2  0  0  0
 15 16  1  0  0  0
 16 17  2  0  0  0
 18 19  1  0  0  0
 21 25  1  0  0  0
 22 23  2  0  0  0
 23 24  1  0  0  0
 24 25  2  0  0  0
M  END
>  <CHROM.0>
-58.63555548,-178.79523256,-178.02447482,13.27467572

>  <CHROM.1>
-10.16902201,86.81902491,-88.08653345,-5.81658892,-42.56584065,-46.72962038
-58.25826975,12.99789236,-5.20514300,0.75817427,2.69168078,-0.77472970,-2.82186578

>  <FORMUL>
      BRL    C18 H19 N3 O3 S1

>  <HET>
 BRL  A   1      25

>  <HETNAM>
     BRL 2,4-THIAZOLIDIINEDIONE, 5-[[4-[2-(METHYL-2-PYRIDINYLAMI
   2 BRL NO)ETHOXY]PHENYL]METHYL]-(9CL)

>  <HETSYN>
     BRL BRL49653; ROSIGLITAZONE

>  <Name>
BRL.pdb

>  <RI>
0

>  <Rbt.Current_Directory>
/home/malgorzata/Desktop/rDOCK_IFD/test13/IFD

>  <Rbt.Executable>
rbdock ($Id: //depot/dev/client3/rdock/2013.1/src/exe/rbdock.cxx#4 $)

>  <Rbt.Library>
libRbt.so (2013.1, Build901 2013/11/27)

>  <Rbt.Parameter_File>
/home/malgorzata/Desktop/rDock_2013.1_src/data/scripts/hard_docking.prm

>  <Rbt.Receptor>
cavity.prm

>  <SCORE>
-7.27625

>  <SCORE.INTER>
-6.08929

>  <SCORE.INTER.CONST>
1

>  <SCORE.INTER.POLAR>
0

>  <SCORE.INTER.REPUL>
0

>  <SCORE.INTER.ROT>
7

>  <SCORE.INTER.VDW>
-18.4893

>  <SCORE.INTER.norm>
-0.243571

>  <SCORE.INTRA>
-0.487876

>  <SCORE.INTRA.DIHEDRAL>
1.54466

>  <SCORE.INTRA.DIHEDRAL.0>
5.55665

>  <SCORE.INTRA.POLAR>
0

>  <SCORE.INTRA.POLAR.0>
0

>  <SCORE.INTRA.REPUL>
0

>  <SCORE.INTRA.REPUL.0>
0

>  <SCORE.INTRA.VDW>
-1.26021

>  <SCORE.INTRA.VDW.0>
-2.56587

>  <SCORE.INTRA.norm>
-0.019515

>  <SCORE.RESTR>
2.44873

>  <SCORE.RESTR.CAVITY>
2.44873

>  <SCORE.RESTR.norm>
0.0979494

>  <SCORE.SYSTEM>
-3.14782

>  <SCORE.SYSTEM.CONST>
0

>  <SCORE.SYSTEM.DIHEDRAL>
0.692378

>  <SCORE.SYSTEM.POLAR>
-0.8

>  <SCORE.SYSTEM.VDW>
-0.774007

>  <SCORE.SYSTEM.norm>
-0.125913

>  <SCORE.heavy>
25

>  <SCORE.norm>
-0.29105

$$$$
BRL.pdb
  rDOCK(R)          3D
libRbt.so/2013.1/901 2013/11/27
 26 28  0  0  0  0  0  0  0  0999 V2000
   11.8416   -0.3026    9.4106 S   0  0  0  0  0  0
   10.2705   -0.0360    7.2647 O   0  0  0  0  0  0
   11.0080   -4.1225    8.9276 O   0  0  0  0  0  0
   13.2494   -7.2956   13.7599 O   0  0  0  0  0  0
   10.4853   -2.1316    7.9637 N   0  0  0  0  0  0
   13.4237   -9.5605   10.7193 N   0  0  0  0  0  0
   10.8342   -9.6970   10.9961 N   0  0  0  0  0  0
   10.7569   -0.8394    8.0596 C   0  0  0  0  0  0
   11.0742   -2.8824    8.9050 C   0  0  0  0  0  0
   11.8801   -2.0774    9.9342 C   0  0  0  0  0  0
   11.4498   -2.3000   11.4458 C   0  0  0  0  0  0
   11.8547   -3.5915   12.1284 C   0  0  0  0  0  0
   11.2810   -4.8836   11.7706 C   0  0  0  0  0  0
   11.7956   -6.0731   12.3681 C   0  0  0  0  0  0
   12.8684   -6.0112   13.3352 C   0  0  0  0  0  0
   13.3775   -4.6989   13.7448 C   0  0  0  0  0  0
   12.8782   -3.5000   13.1445 C   0  0  0  0  0  0
   13.0408   -8.6350   13.1859 C   0  0  0  0  0  0
   13.7577   -8.5557   11.8217 C   0  0  0  0  0  0
   14.6990   -9.8163    9.9029 C   0  0  0  0  0  0
   11.9851  -10.1484   10.3639 C   0  0  0  0  0  0
    9.5781  -10.1390   10.7208 C   0  0  0  0  0  0
    9.3586  -11.1537    9.7130 C   0  0  0  0  0  0
   10.4897  -11.6840    9.0130 C   0  0  0  0  0  0
   11.8000  -11.1910    9.3322 C   0  0  0  0  0  0
    9.9034   -2.5072    7.2641 H   0  0  0  0  0  0
  1  8  1  0  0  0
  1 10  1  0  0  0
  2  8  2  0  0  0
  3  9  2  0  0  0
  4 15  1  0  0  0
  4 18  1  0  0  0
  5  8  1  0  0  0
  5  9  1  0  0  0
  5 26  1  0  0  0
  6 19  1  0  0  0
  6 20  1  0  0  0
  6 21  1  0  0  0
  7 21  2  0  0  0
  7 22  1  0  0  0
  9 10  1  0  0  0
 10 11  1  0  0  0
 11 12  1  0  0  0
 12 13  2  0  0  0
 12 17  1  0  0  0
 13 14  1  0  0  0
 14 15  2  0  0  0
 15 16  1  0  0  0
 16 17  2  0  0  0
 18 19  1  0  0  0
 21 25  1  0  0  0
 22 23  2  0  0  0
 23 24  1  0  0  0
 24 25  2  0  0  0
M  END
>  <CHROM.0>
-81.45228573,179.92999314,177.72456694,122.18028784

>  <CHROM.1>
18.64030188,61.25976146,-147.20763867,5.17905949,-160.49231732,-69.49496137
-160.67761892,11.81485133,-5.73385917,10.62250018,1.71790730,-1.05498608
-0.04410777

>  <FORMUL>
      BRL    C18 H19 N3 O3 S1

>  <HET>
 BRL  A   1      25

>  <HETNAM>
     BRL 2,4-THIAZOLIDIINEDIONE, 5-[[4-[2-(METHYL-2-PYRIDINYLAMI
   2 BRL NO)ETHOXY]PHENYL]METHYL]-(9CL)

>  <HETSYN>
     BRL BRL49653; ROSIGLITAZONE

>  <Name>
BRL.pdb

>  <RI>
0

>  <Rbt.Current_Directory>
/home/malgorzata/Desktop/rDOCK_IFD/test13/IFD

>  <Rbt.Executable>
rbdock ($Id: //depot/dev/client3/rdock/2013.1/src/exe/rbdock.cxx#4 $)

>  <Rbt.Library>
libRbt.so (2013.1, Build901 2013/11/27)

>  <Rbt.Parameter_File>
/home/malgorzata/Desktop/rDock_2013.1_src/data/scripts/hard_docking.prm

>  <Rbt.Receptor>
cavity.prm

>  <SCORE>
-8.79451

>  <SCORE.INTER>
-11.2426

>  <SCORE.INTER.CONST>
1

>  <SCORE.INTER.POLAR>
-0.452377

>  <SCORE.INTER.REPUL>
0

>  <SCORE.INTER.ROT>
7

>  <SCORE.INTER.VDW>
-22.1045

>  <SCORE.INTER.norm>
-0.449704

>  <SCORE.INTRA>
1.69992

>  <SCORE.INTRA.DIHEDRAL>
1.27177

>  <SCORE.INTRA.DIHEDRAL.0>
5.55665

>  <SCORE.INTRA.POLAR>
0

>  <SCORE.INTRA.POLAR.0>
0

>  <SCORE.INTRA.REPUL>
0

>  <SCORE.INTRA.REPUL.0>
0

>  <SCORE.INTRA.VDW>
1.06404

>  <SCORE.INTRA.VDW.0>
-2.56587

>  <SCORE.INTRA.norm>
0.0679968

>  <SCORE.RESTR>
0

>  <SCORE.RESTR.CAVITY>
0

>  <SCORE.RESTR.norm>
0

>  <SCORE.SYSTEM>
0.748173

>  <SCORE.SYSTEM.CONST>
0

>  <SCORE.SYSTEM.DIHEDRAL>
3.8398

>  <SCORE.SYSTEM.VDW>
-1.17173

>  <SCORE.SYSTEM.norm>
0.0299269

>  <SCORE.heavy>
25

>  <SCORE.norm>
-0.35178

$$$$
BRL.pdb
  rDOCK(R)          3D
libRbt.so/2013.1/901 2013/11/27
 26 28  0  0  0  0  0  0  0  0999 V2000
   11.5747   -2.4564    2.3874 S   0  0  0  0  0  0
   12.6297   -0.0041    2.2564 O   0  0  0  0  0  0
   10.0150   -1.0657    5.7270 O   0  0  0  0  0  0
   10.0832   -3.3522   10.5260 O   0  0  0  0  0  0
   11.3947   -0.3532    4.0673 N   0  0  0  0  0  0
   12.8450   -5.1751   12.4289 N   0  0  0  0  0  0
   12.7765   -3.2511   14.1880 N   0  0  0  0  0  0
   11.9192   -0.7575    2.9209 C   0  0  0  0  0  0
   10.6561   -1.2849    4.6860 C   0  0  0  0  0  0
   10.6331   -2.6427    3.9699 C   0  0  0  0  0  0
   11.1133   -3.8734    4.8500 C   0  0  0  0  0  0
   10.8499   -3.8392    6.3425 C   0  0  0  0  0  0
   11.9052   -3.6099    7.3224 C   0  0  0  0  0  0
   11.5677   -3.4689    8.7019 C   0  0  0  0  0  0
   10.1938   -3.5657    9.1413 C   0  0  0  0  0  0
    9.1554   -3.8783    8.1550 C   0  0  0  0  0  0
    9.4793   -4.0102    6.7676 C   0  0  0  0  0  0
   11.0729   -3.3624   11.6157 C   0  0  0  0  0  0
   11.6305   -4.8009   11.5796 C   0  0  0  0  0  0
   13.3854   -6.5210   11.9241 C   0  0  0  0  0  0
   13.3929   -4.3996   13.7096 C   0  0  0  0  0  0
   13.1790   -2.5597   15.2875 C   0  0  0  0  0  0
   14.3265   -2.9963   16.0531 C   0  0  0  0  0  0
   15.0302   -4.1692   15.6293 C   0  0  0  0  0  0
   14.5738   -4.8720   14.4633 C   0  0  0  0  0  0
   11.5346    0.5503    4.4324 H   0  0  0  0  0  0
  1  8  1  0  0  0
  1 10  1  0  0  0
  2  8  2  0  0  0
  3  9  2  0  0  0
  4 15  1  0  0  0
  4 18  1  0  0  0
  5  8  1  0  0  0
  5  9  1  0  0  0
  5 26  1  0  0  0
  6 19  1  0  0  0
  6 20  1  0  0  0
  6 21  1  0  0  0
  7 21  2  0  0  0
  7 22  1  0  0  0
  9 10  1  0  0  0
 10 11  1  0  0  0
 11 12  1  0  0  0
 12 13  2  0  0  0
 12 17  1  0  0  0
 13 14  1  0  0  0
 14 15  2  0  0  0
 15 16  1  0  0  0
 16 17  2  0  0  0
 18 19  1  0  0  0
 21 25  1  0  0  0
 22 23  2  0  0  0
 23 24  1  0  0  0
 24 25  2  0  0  0
M  END
>  <CHROM.0>
160.58813688,-60.96403246,-61.79160399,-121.22673101

>  <CHROM.1>
-16.28013638,-60.80995144,-165.45335792,-0.04241385,156.24559128,-106.70547321
170.95642456,11.79347285,-3.14585037,8.60587793,-1.83149335,0.72297534,1.96565290

>  <FORMUL>
      BRL    C18 H19 N3 O3 S1

>  <HET>
 BRL  A   1      25

>  <HETNAM>
     BRL 2,4-THIAZOLIDIINEDIONE, 5-[[4-[2-(METHYL-2-PYRIDINYLAMI
   2 BRL NO)ETHOXY]PHENYL]METHYL]-(9CL)

>  <HETSYN>
     BRL BRL49653; ROSIGLITAZONE

>  <Name>
BRL.pdb

>  <RI>
0

>  <Rbt.Current_Directory>
/home/malgorzata/Desktop/rDOCK_IFD/test13/IFD

>  <Rbt.Executable>
rbdock ($Id: //depot/dev/client3/rdock/2013.1/src/exe/rbdock.cxx#4 $)

>  <Rbt.Library>
libRbt.so (2013.1, Build901 2013/11/27)

>  <Rbt.Parameter_File>
/home/malgorzata/Desktop/rDock_2013.1_src/data/scripts/hard_docking.prm

>  <Rbt.Receptor>
cavity.prm

>  <SCORE>
-11.032

>  <SCORE.INTER>
-13.1751

>  <SCORE.INTER.CONST>
1

>  <SCORE.INTER.POLAR>
0

>  <SCORE.INTER.REPUL>
0

>  <SCORE.INTER.ROT>
7

>  <SCORE.INTER.VDW>
-25.5751

>  <SCORE.INTER.norm>
-0.527004

>  <SCORE.INTRA>
1.27224

>  <SCORE.INTRA.DIHEDRAL>
0.415642

>  <SCORE.INTRA.DIHEDRAL.0>
5.55665

>  <SCORE.INTRA.POLAR>
0

>  <SCORE.INTRA.POLAR.0>
0

>  <SCORE.INTRA.REPUL>
0

>  <SCORE.INTRA.REPUL.0>
0

>  <SCORE.INTRA.VDW>
1.06442

>  <SCORE.INTRA.VDW.0>
-2.56587

>  <SCORE.INTRA.norm>
0.0508898

>  <SCORE.RESTR>
0.0291203

>  <SCORE.RESTR.CAVITY>
0.0291203

>  <SCORE.RESTR.norm>
0.00116481

>  <SCORE.SYSTEM>
0.841741

>  <SCORE.SYSTEM.CONST>
0

>  <SCORE.SYSTEM.DIHEDRAL>
3.95691

>  <SCORE.SYSTEM.REPUL>
0.0369681

>  <SCORE.SYSTEM.VDW>
-1.32156

>  <SCORE.SYSTEM.norm>
0.0336696

>  <SCORE.heavy>
25

>  <SCORE.norm>
-0.441279

$$$$
BRL.pdb
  rDOCK(R)          3D
libRbt.so/2013.1/901 2013/11/27
 26 28  0  0  0  0  0  0  0  0999 V2000
    9.7223   -7.5502   -0.5805 S   0  0  0  0  0  0
    9.0567   -8.1339    1.9414 O   0  0  0  0  0  0
   12.4896  -10.2838    0.0435 O   0  0  0  0  0  0
   14.9284   -3.6343    1.8254 O   0  0  0  0  0  0
   10.8058   -9.2745    1.1890 N   0  0  0  0  0  0
   12.8509   -0.5029    2.4529 N   0  0  0  0  0  0
   11.3019   -1.9356    3.9854 N   0  0  0  0  0  0
    9.8369   -8.3875    1.0244 C   0  0  0  0  0  0
   11.5843   -9.4360    0.1099 C   0  0  0  0  0  0
   11.2308   -8.5088   -1.0615 C   0  0  0  0  0  0
   12.4223   -7.5955   -1.5773 C   0  0  0  0  0  0
   13.0542   -6.6178   -0.6063 C   0  0  0  0  0  0
   14.4814   -6.6181   -0.3069 C   0  0  0  0  0  0
   15.0279   -5.5931    0.5222 C   0  0  0  0  0  0
   14.1811   -4.5632    1.0812 C   0  0  0  0  0  0
   12.7368   -4.6249    0.8378 C   0  0  0  0  0  0
   12.1785   -5.6404   -0.0012 C   0  0  0  0  0  0
   14.5377   -2.5433    2.7333 C   0  0  0  0  0  0
   13.7049   -1.6080    1.8317 C   0  0  0  0  0  0
   13.3975    0.8501    1.9743 C   0  0  0  0  0  0
   11.6837   -0.6830    3.5238 C   0  0  0  0  0  0
   10.3334   -2.1538    4.9146 C   0  0  0  0  0  0
    9.6090   -1.0454    5.4978 C   0  0  0  0  0  0
    9.9308    0.2847    5.0762 C   0  0  0  0  0  0
   10.9601    0.4737    4.0931 C   0  0  0  0  0  0
   10.9423   -9.7707    2.0282 H   0  0  0  0  0  0
  1  8  1  0  0  0
  1 10  1  0  0  0
  2  8  2  0  0  0
  3  9  2  0  0  0
  4 15  1  0  0  0
  4 18  1  0  0  0
  5  8  1  0  0  0
  5  9  1  0  0  0
  5 26  1  0  0  0
  6 19  1  0  0  0
  6 20  1  0  0  0
  6 21  1  0  0  0
  7 21  2  0  0  0
  7 22  1  0  0  0
  9 10  1  0  0  0
 10 11  1  0  0  0
 11 12  1  0  0  0
 12 13  2  0  0  0
 12 17  1  0  0  0
 13 14  1  0  0  0
 14 15  2  0  0  0
 15 16  1  0  0  0
 16 17  2  0  0  0
 18 19  1  0  0  0
 21 25  1  0  0  0
 22 23  2  0  0  0
 23 24  1  0  0  0
 24 25  2  0  0  0
M  END
>  <CHROM.0>
-77.57395411,-179.86169400,-61.60090122,13.46929286

>  <CHROM.1>
-169.73467254,-60.57392020,116.57080088,-1.63345276,64.27657947,123.71960152
166.58135453,11.97139400,-4.79126841,1.50879418,1.63321725,-0.43049540,-2.66966250

>  <FORMUL>
      BRL    C18 H19 N3 O3 S1

>  <HET>
 BRL  A   1      25

>  <HETNAM>
     BRL 2,4-THIAZOLIDIINEDIONE, 5-[[4-[2-(METHYL-2-PYRIDINYLAMI
   2 BRL NO)ETHOXY]PHENYL]METHYL]-(9CL)

>  <HETSYN>
     BRL BRL49653; ROSIGLITAZONE

>  <Name>
BRL.pdb

>  <RI>
0

>  <Rbt.Current_Directory>
/home/malgorzata/Desktop/rDOCK_IFD/test13/IFD

>  <Rbt.Executable>
rbdock ($Id: //depot/dev/client3/rdock/2013.1/src/exe/rbdock.cxx#4 $)

>  <Rbt.Library>
libRbt.so (2013.1, Build901 2013/11/27)

>  <Rbt.Parameter_File>
/home/malgorzata/Desktop/rDock_2013.1_src/data/scripts/hard_docking.prm

>  <Rbt.Receptor>
cavity.prm

>  <SCORE>
-13.3306

>  <SCORE.INTER>
-10.5322

>  <SCORE.INTER.CONST>
1

>  <SCORE.INTER.POLAR>
0

>  <SCORE.INTER.REPUL>
0

>  <SCORE.INTER.ROT>
7

>  <SCORE.INTER.VDW>
-22.9322

>  <SCORE.INTER.norm>
-0.421287

>  <SCORE.INTRA>
-0.592762

>  <SCORE.INTRA.DIHEDRAL>
-1.46274

>  <SCORE.INTRA.DIHEDRAL.0>
5.55665

>  <SCORE.INTRA.POLAR>
0

>  <SCORE.INTRA.POLAR.0>
0

>  <SCORE.INTRA.REPUL>
0

>  <SCORE.INTRA.REPUL.0>
0

>  <SCORE.INTRA.VDW>
0.138608

>  <SCORE.INTRA.VDW.0>
-2.56587

>  <SCORE.INTRA.norm>
-0.0237105

>  <SCORE.RESTR>
1.16269

>  <SCORE.RESTR.CAVITY>
1.16269

>  <SCORE.RESTR.norm>
0.0465074

>  <SCORE.SYSTEM>
-3.3683

>  <SCORE.SYSTEM.CONST>
0

>  <SCORE.SYSTEM.DIHEDRAL>
0.687743

>  <SCORE.SYSTEM.POLAR>
-0.8

>  <SCORE.SYSTEM.VDW>
-0.992173

>  <SCORE.SYSTEM.norm>
-0.134732

>  <SCORE.heavy>
25

>  <SCORE.norm>
-0.533222

$$$$
BRL.pdb
  rDOCK(R)          3D
libRbt.so/2013.1/901 2013/11/27
 26 28  0  0  0  0  0  0  0  0999 V2000
    7.7710   -3.6745    7.0385 S   0  0  0  0  0  0
    6.7607   -6.1480    7.1079 O   0  0  0  0  0  0
   10.8859   -5.5268    5.4937 O   0  0  0  0  0  0
   10.7347   -5.3783   12.7316 O   0  0  0  0  0  0
    8.8297   -6.0468    6.3108 N   0  0  0  0  0  0
   11.1626   -5.4974   15.6329 N   0  0  0  0  0  0
   12.7741   -3.5993   16.4083 N   0  0  0  0  0  0
    7.7436   -5.4729    6.8045 C   0  0  0  0  0  0
    9.8232   -5.1885    6.0406 C   0  0  0  0  0  0
    9.5165   -3.7346    6.4260 C   0  0  0  0  0  0
   10.5591   -3.0704    7.4219 C   0  0  0  0  0  0
   10.6190   -3.5797    8.8485 C   0  0  0  0  0  0
    9.4238   -3.8216    9.6482 C   0  0  0  0  0  0
    9.5481   -4.4162   10.9396 C   0  0  0  0  0  0
   10.8460   -4.7674   11.4708 C   0  0  0  0  0  0
   12.0426   -4.4421   10.6889 C   0  0  0  0  0  0
   11.9306   -3.8571    9.3881 C   0  0  0  0  0  0
   11.1852   -6.6810   13.2484 C   0  0  0  0  0  0
   10.7409   -6.6532   14.7259 C   0  0  0  0  0  0
   10.0166   -5.2184   16.6164 C   0  0  0  0  0  0
   12.4895   -4.6218   15.5131 C   0  0  0  0  0  0
   13.8981   -2.8347   16.3751 C   0  0  0  0  0  0
   14.9042   -3.0477   15.3574 C   0  0  0  0  0  0
   14.6923   -4.0778   14.3856 C   0  0  0  0  0  0
   13.4927   -4.8640   14.4544 C   0  0  0  0  0  0
    8.9012   -7.0163    6.1562 H   0  0  0  0  0  0
  1  8  1  0  0  0
  1 10  1  0  0  0
  2  8  2  0  0  0
  3  9  2  0  0  0
  4 15  1  0  0  0
  4 18  1  0  0  0
  5  8  1  0  0  0
  5  9  1  0  0  0
  5 26  1  0  0  0
  6 19  1  0  0  0
  6 20  1  0  0  0
  6 21  1  0  0  0
  7 21  2  0  0  0
  7 22  1  0  0  0
  9 10  1  0  0  0
 10 11  1  0  0  0
 11 12  1  0  0  0
 12 13  2  0  0  0
 12 17  1  0  0  0
 13 14  1  0  0  0
 14 15  2  0  0  0
 15 16  1  0  0  0
 16 17  2  0  0  0
 18 19  1  0  0  0
 21 25  1  0  0  0
 22 23  2  0  0  0
 23 24  1  0  0  0
 24 25  2  0  0  0
M  END
>  <CHROM.0>
-160.79180699,-176.64519239,-177.73631953,-114.13039540

>  <CHROM.1>
122.87422009,178.78140849,145.21852472,-179.36147438,55.87073213,-45.36949900
-54.11669377,10.69066977,-4.64185009,10.93093690,2.03871807,-0.47488669,-1.37238198

>  <FORMUL>
      BRL    C18 H19 N3 O3 S1

>  <HET>
 BRL  A   1      25

>  <HETNAM>
     BRL 2,4-THIAZOLIDIINEDIONE, 5-[[4-[2-(METHYL-2-PYRIDINYLAMI
   2 BRL NO)ETHOXY]PHENYL]METHYL]-(9CL)

>  <HETSYN>
     BRL BRL49653; ROSIGLITAZONE

>  <Name>
BRL.pdb

>  <RI>
0

>  <Rbt.Current_Directory>
/home/malgorzata/Desktop/rDOCK_IFD/test13/IFD

>  <Rbt.Executable>
rbdock ($Id: //depot/dev/client3/rdock/2013.1/src/exe/rbdock.cxx#4 $)

>  <Rbt.Library>
libRbt.so (2013.1, Build901 2013/11/27)

>  <Rbt.Parameter_File>
/home/malgorzata/Desktop/rDock_2013.1_src/data/scripts/hard_docking.prm

>  <Rbt.Receptor>
cavity.prm

>  <SCORE>
-13.4495

>  <SCORE.INTER>
-14.5183

>  <SCORE.INTER.CONST>
1

>  <SCORE.INTER.POLAR>
0

>  <SCORE.INTER.REPUL>
0.0199673

>  <SCORE.INTER.ROT>
7

>  <SCORE.INTER.VDW>
-27.0182

>  <SCORE.INTER.norm>
-0.580733

>  <SCORE.INTRA>
0.119603

>  <SCORE.INTRA.DIHEDRAL>
0.955157

>  <SCORE.INTRA.DIHEDRAL.0>
5.55665

>  <SCORE.INTRA.POLAR>
0

>  <SCORE.INTRA.POLAR.0>
0

>  <SCORE.INTRA.REPUL>
0

>  <SCORE.INTRA.REPUL.0>
0

>  <SCORE.INTRA.VDW>
-0.357975

>  <SCORE.INTRA.VDW.0>
-2.56587

>  <SCORE.INTRA.norm>
0.00478413

>  <SCORE.RESTR>
0

>  <SCORE.RESTR.CAVITY>
0

>  <SCORE.RESTR.norm>
0

>  <SCORE.SYSTEM>
0.949231

>  <SCORE.SYSTEM.CONST>
0

>  <SCORE.SYSTEM.DIHEDRAL>
4.49797

>  <SCORE.SYSTEM.REPUL>
0.000292667

>  <SCORE.SYSTEM.VDW>
-1.30122

>  <SCORE.SYSTEM.norm>
0.0379692

>  <SCORE.heavy>
25

>  <SCORE.norm>
-0.53798

$$$$
BRL.pdb
  rDOCK(R)          3D
libRbt.so/2013.1/901 2013/11/27
 26 28  0  0  0  0  0  0  0  0999 V2000
    9.6351   -7.8403   12.5251 S   0  0  0  0  0  0
    9.4787   -8.0249   15.1870 O   0  0  0  0  0  0
   12.4309   -5.1970   13.3715 O   0  0  0  0  0  0
   13.3218   -0.7731    9.4859 O   0  0  0  0  0  0
   10.9720   -6.5441   14.4772 N   0  0  0  0  0  0
   11.2773    1.3833    8.6818 N   0  0  0  0  0  0
   10.7031   -1.0971    8.1171 N   0  0  0  0  0  0
   10.0468   -7.4637   14.2509 C   0  0  0  0  0  0
   11.4925   -6.0107   13.3632 C   0  0  0  0  0  0
   10.8564   -6.5279   12.0653 C   0  0  0  0  0  0
   10.2515   -5.4046   11.1207 C   0  0  0  0  0  0
   11.1201   -4.2128   10.7697 C   0  0  0  0  0  0
   12.1571   -4.2695    9.7459 C   0  0  0  0  0  0
   12.8538   -3.0785    9.3816 C   0  0  0  0  0  0
   12.5545   -1.8194   10.0259 C   0  0  0  0  0  0
   11.5679   -1.7958   11.1099 C   0  0  0  0  0  0
   10.8542   -2.9805   11.4762 C   0  0  0  0  0  0
   13.5225    0.6265    9.8957 C   0  0  0  0  0  0
   12.0872    1.1892    9.9635 C   0  0  0  0  0  0
   11.0069    2.8852    8.5096 C   0  0  0  0  0  0
   10.6810    0.2402    7.7440 C   0  0  0  0  0  0
   10.1894   -2.1142    7.3750 C   0  0  0  0  0  0
    9.5677   -1.8515    6.0953 C   0  0  0  0  0  0
    9.5055   -0.5003    5.6253 C   0  0  0  0  0  0
   10.0589    0.5460    6.4382 C   0  0  0  0  0  0
   11.2524   -6.2763   15.3821 H   0  0  0  0  0  0
  1  8  1  0  0  0
  1 10  1  0  0  0
  2  8  2  0  0  0
  3  9  2  0  0  0
  4 15  1  0  0  0
  4 18  1  0  0  0
  5  8  1  0  0  0
  5  9  1  0  0  0
  5 26  1  0  0  0
  6 19  1  0  0  0
  6 20  1  0  0  0
  6 21  1  0  0  0
  7 21  2  0  0  0
  7 22  1  0  0  0
  9 10  1  0  0  0
 10 11  1  0  0  0
 11 12  1  0  0  0
 12 13  2  0  0  0
 12 17  1  0  0  0
 13 14  1  0  0  0
 14 15  2  0  0  0
 15 16  1  0  0  0
 16 17  2  0  0  0
 18 19  1  0  0  0
 21 25  1  0  0  0
 22 23  2  0  0  0
 23 24  1  0  0  0
 24 25  2  0  0  0
M  END
>  <CHROM.0>
-157.31490161,63.82356032,-60.55107581,11.29630740

>  <CHROM.1>
-170.75091474,-55.14972680,-115.90357533,8.63893320,174.92180087,79.30716611
-68.99692349,11.06835435,-3.08171345,10.44504505,1.70030345,0.89768999,2.40315550

>  <FORMUL>
      BRL    C18 H19 N3 O3 S1

>  <HET>
 BRL  A   1      25

>  <HETNAM>
     BRL 2,4-THIAZOLIDIINEDIONE, 5-[[4-[2-(METHYL-2-PYRIDINYLAMI
   2 BRL NO)ETHOXY]PHENYL]METHYL]-(9CL)

>  <HETSYN>
     BRL BRL49653; ROSIGLITAZONE

>  <Name>
BRL.pdb

>  <RI>
0

>  <Rbt.Current_Directory>
/home/malgorzata/Desktop/rDOCK_IFD/test13/IFD

>  <Rbt.Executable>
rbdock ($Id: //depot/dev/client3/rdock/2013.1/src/exe/rbdock.cxx#4 $)

>  <Rbt.Library>
libRbt.so (2013.1, Build901 2013/11/27)

>  <Rbt.Parameter_File>
/home/malgorzata/Desktop/rDock_2013.1_src/data/scripts/hard_docking.prm

>  <Rbt.Receptor>
cavity.prm

>  <SCORE>
-15.2681

>  <SCORE.INTER>
-10.3098

>  <SCORE.INTER.CONST>
1

>  <SCORE.INTER.POLAR>
0

>  <SCORE.INTER.REPUL>
0

>  <SCORE.INTER.ROT>
7

>  <SCORE.INTER.VDW>
-22.7098

>  <SCORE.INTER.norm>
-0.412391

>  <SCORE.INTRA>
-1.84875

>  <SCORE.INTRA.DIHEDRAL>
-1.38491

>  <SCORE.INTRA.DIHEDRAL.0>
5.55665

>  <SCORE.INTRA.POLAR>
0

>  <SCORE.INTRA.POLAR.0>
0

>  <SCORE.INTRA.REPUL>
0

>  <SCORE.INTRA.REPUL.0>
0

>  <SCORE.INTRA.VDW>
-1.1563

>  <SCORE.INTRA.VDW.0>
-2.56587

>  <SCORE.INTRA.norm>
-0.07395

>  <SCORE.RESTR>
0.27997

>  <SCORE.RESTR.CAVITY>
0.27997

>  <SCORE.RESTR.norm>
0.0111988

>  <SCORE.SYSTEM>
-3.38956

>  <SCORE.SYSTEM.CONST>
0

>  <SCORE.SYSTEM.DIHEDRAL>
0.6672

>  <SCORE.SYSTEM.POLAR>
-0.8

>  <SCORE.SYSTEM.VDW>
-1.00316

>  <SCORE.SYSTEM.norm>
-0.135583

>  <SCORE.heavy>
25

>  <SCORE.norm>
-0.610724

$$$$
BRL.pdb
  rDOCK(R)          3D
libRbt.so/2013.1/901 2013/11/27
 26 28  0  0  0  0  0  0  0  0999 V2000
   12.8491   -6.7932   -1.7582 S   0  0  0  0  0  0
   12.9859   -4.1242   -1.7152 O   0  0  0  0  0  0
    8.9715   -6.0972   -1.7486 O   0  0  0  0  0  0
   10.0116   -5.9623    4.7820 O   0  0  0  0  0  0
   10.9126   -4.9161   -1.6902 N   0  0  0  0  0  0
    9.8283   -3.0863    7.2868 N   0  0  0  0  0  0
   11.0523   -1.2790    8.7139 N   0  0  0  0  0  0
   12.2245   -5.0907   -1.7245 C   0  0  0  0  0  0
   10.2117   -6.0586   -1.6914 C   0  0  0  0  0  0
   11.0789   -7.3250   -1.6612 C   0  0  0  0  0  0
   10.7810   -8.3134   -0.4553 C   0  0  0  0  0  0
   10.6719   -7.7348    0.9415 C   0  0  0  0  0  0
   11.0236   -6.3536    1.2505 C   0  0  0  0  0  0
   10.7813   -5.8405    2.5600 C   0  0  0  0  0  0
   10.2054   -6.6780    3.5881 C   0  0  0  0  0  0
    9.9342   -8.0863    3.2846 C   0  0  0  0  0  0
   10.1617   -8.6094    1.9725 C   0  0  0  0  0  0
   10.5174   -4.6636    5.2559 C   0  0  0  0  0  0
    9.7345   -4.4305    6.5651 C   0  0  0  0  0  0
    8.5906   -2.2566    6.9156 C   0  0  0  0  0  0
   11.0494   -2.5533    8.1624 C   0  0  0  0  0  0
   12.0496   -0.7755    9.4890 C   0  0  0  0  0  0
   13.2194   -1.5709    9.7930 C   0  0  0  0  0  0
   13.3067   -2.8972    9.2604 C   0  0  0  0  0  0
   12.2326   -3.3929    8.4464 C   0  0  0  0  0  0
   10.4899   -4.0273   -1.6661 H   0  0  0  0  0  0
  1  8  1  0  0  0
  1 10  1  0  0  0
  2  8  2  0  0  0
  3  9  2  0  0  0
  4 15  1  0  0  0
  4 18  1  0  0  0
  5  8  1  0  0  0
  5  9  1  0  0  0
  5 26  1  0  0  0
  6 19  1  0  0  0
  6 20  1  0  0  0
  6 21  1  0  0  0
  7 21  2  0  0  0
  7 22  1  0  0  0
  9 10  1  0  0  0
 10 11  1  0  0  0
 11 12  1  0  0  0
 12 13  2  0  0  0
 12 17  1  0  0  0
 13 14  1  0  0  0
 14 15  2  0  0  0
 15 16  1  0  0  0
 16 17  2  0  0  0
 18 19  1  0  0  0
 21 25  1  0  0  0
 22 23  2  0  0  0
 23 24  1  0  0  0
 24 25  2  0  0  0
M  END
>  <CHROM.0>
-169.70854812,66.50190459,-60.70529046,122.38497549

>  <CHROM.1>
-14.54303140,172.29314569,99.02924542,176.43741345,76.96231839,-9.40394813
-171.71831372,11.04540851,-5.06535044,3.12308613,-1.58279538,0.89185558,1.17684703

>  <FORMUL>
      BRL    C18 H19 N3 O3 S1

>  <HET>
 BRL  A   1      25

>  <HETNAM>
     BRL 2,4-THIAZOLIDIINEDIONE, 5-[[4-[2-(METHYL-2-PYRIDINYLAMI
   2 BRL NO)ETHOXY]PHENYL]METHYL]-(9CL)

>  <HETSYN>
     BRL BRL49653; ROSIGLITAZONE

>  <Name>
BRL.pdb

>  <RI>
0

>  <Rbt.Current_Directory>
/home/malgorzata/Desktop/rDOCK_IFD/test13/IFD

>  <Rbt.Executable>
rbdock ($Id: //depot/dev/client3/rdock/2013.1/src/exe/rbdock.cxx#4 $)

>  <Rbt.Library>
libRbt.so (2013.1, Build901 2013/11/27)

>  <Rbt.Parameter_File>
/home/malgorzata/Desktop/rDock_2013.1_src/data/scripts/hard_docking.prm

>  <Rbt.Receptor>
cavity.prm

>  <SCORE>
-13.5392

>  <SCORE.INTER>
-14.9231

>  <SCORE.INTER.CONST>
1

>  <SCORE.INTER.POLAR>
-0.672619

>  <SCORE.INTER.REPUL>
0

>  <SCORE.INTER.ROT>
7

>  <SCORE.INTER.VDW>
-25.0362

>  <SCORE.INTER.norm>
-0.596924

>  <SCORE.INTRA>
0.780562

>  <SCORE.INTRA.DIHEDRAL>
-0.229767

>  <SCORE.INTRA.DIHEDRAL.0>
5.55665

>  <SCORE.INTRA.POLAR>
0

>  <SCORE.INTRA.POLAR.0>
0

>  <SCORE.INTRA.REPUL>
0

>  <SCORE.INTRA.REPUL.0>
0

>  <SCORE.INTRA.VDW>
0.895445

>  <SCORE.INTRA.VDW.0>
-2.56587

>  <SCORE.INTRA.norm>
0.0312225

>  <SCORE.RESTR>
0

>  <SCORE.RESTR.CAVITY>
0

>  <SCORE.RESTR.norm>
0

>  <SCORE.SYSTEM>
0.603329

>  <SCORE.SYSTEM.CONST>
0

>  <SCORE.SYSTEM.DIHEDRAL>
4.00527

>  <SCORE.SYSTEM.REPUL>
0.000698233

>  <SCORE.SYSTEM.VDW>
-1.4028

>  <SCORE.SYSTEM.norm>
0.0241332

>  <SCORE.heavy>
25

>  <SCORE.norm>
-0.541569

$$$$
BRL.pdb
  rDOCK(R)          3D
libRbt.so/2013.1/901 2013/11/27
 26 28  0  0  0  0  0  0  0  0999 V2000
   12.1434   -5.2599   15.5028 S   0  0  0  0  0  0
   14.5956   -4.2499   15.8354 O   0  0  0  0  0  0
   14.1513   -8.4035   14.2356 O   0  0  0  0  0  0
   12.0063   -3.2147    9.1142 O   0  0  0  0  0  0
   14.5786   -6.3052   14.9976 N   0  0  0  0  0  0
   10.2263   -3.5243    5.7486 N   0  0  0  0  0  0
    9.8006   -4.7329    3.4773 N   0  0  0  0  0  0
   13.9565   -5.2330   15.4625 C   0  0  0  0  0  0
   13.7533   -7.2903   14.6167 C   0  0  0  0  0  0
   12.2635   -6.9395   14.7347 C   0  0  0  0  0  0
   11.4326   -7.0803   13.3894 C   0  0  0  0  0  0
   11.5692   -5.9945   12.3404 C   0  0  0  0  0  0
   12.8624   -5.4818   11.9028 C   0  0  0  0  0  0
   12.9224   -4.5478   10.8254 C   0  0  0  0  0  0
   11.7155   -4.0923   10.1727 C   0  0  0  0  0  0
   10.4195   -4.5542   10.6786 C   0  0  0  0  0  0
   10.3466   -5.4996   11.7500 C   0  0  0  0  0  0
   12.0793   -3.4051    7.6563 C   0  0  0  0  0  0
   10.5980   -3.4824    7.2306 C   0  0  0  0  0  0
    9.8642   -2.0991    5.3057 C   0  0  0  0  0  0
   10.0901   -4.8219    4.8323 C   0  0  0  0  0  0
    9.6965   -5.7982    2.6385 C   0  0  0  0  0  0
    9.8841   -7.1453    3.1318 C   0  0  0  0  0  0
   10.1797   -7.3346    4.5200 C   0  0  0  0  0  0
   10.2818   -6.1843    5.3734 C   0  0  0  0  0  0
   15.5588   -6.3728   14.9370 H   0  0  0  0  0  0
  1  8  1  0  0  0
  1 10  1  0  0  0
  2  8  2  0  0  0
  3  9  2  0  0  0
  4 15  1  0  0  0
  4 18  1  0  0  0
  5  8  1  0  0  0
  5  9  1  0  0  0
  5 26  1  0  0  0
  6 19  1  0  0  0
  6 20  1  0  0  0
  6 21  1  0  0  0
  7 21  2  0  0  0
  7 22  1  0  0  0
  9 10  1  0  0  0
 10 11  1  0  0  0
 11 12  1  0  0  0
 12 13  2  0  0  0
 12 17  1  0  0  0
 13 14  1  0  0  0
 14 15  2  0  0  0
 15 16  1  0  0  0
 16 17  2  0  0  0
 18 19  1  0  0  0
 21 25  1  0  0  0
 22 23  2  0  0  0
 23 24  1  0  0  0
 24 25  2  0  0  0
M  END
>  <CHROM.0>
-100.47053518,-60.78488345,-62.19377586,13.43137631

>  <CHROM.1>
99.98479611,75.56812010,-97.19763260,-177.19502128,47.37459003,47.78011345
173.18890790,11.72040725,-5.27715685,10.15056103,-0.00853509,-1.27628138
0.09341389

>  <FORMUL>
      BRL    C18 H19 N3 O3 S1

>  <HET>
 BRL  A   1      25

>  <HETNAM>
     BRL 2,4-THIAZOLIDIINEDIONE, 5-[[4-[2-(METHYL-2-PYRIDINYLAMI
   2 BRL NO)ETHOXY]PHENYL]METHYL]-(9CL)

>  <HETSYN>
     BRL BRL49653; ROSIGLITAZONE

>  <Name>
BRL.pdb

>  <RI>
0

>  <Rbt.Current_Directory>
/home/malgorzata/Desktop/rDOCK_IFD/test13/IFD

>  <Rbt.Executable>
rbdock ($Id: //depot/dev/client3/rdock/2013.1/src/exe/rbdock.cxx#4 $)

>  <Rbt.Library>
libRbt.so (2013.1, Build901 2013/11/27)

>  <Rbt.Parameter_File>
/home/malgorzata/Desktop/rDock_2013.1_src/data/scripts/hard_docking.prm

>  <Rbt.Receptor>
cavity.prm

>  <SCORE>
-15.167

>  <SCORE.INTER>
-13.589

>  <SCORE.INTER.CONST>
1

>  <SCORE.INTER.POLAR>
-0.792931

>  <SCORE.INTER.REPUL>
0

>  <SCORE.INTER.ROT>
7

>  <SCORE.INTER.VDW>
-23.2931

>  <SCORE.INTER.norm>
-0.543561

>  <SCORE.INTRA>
1.78486

>  <SCORE.INTRA.DIHEDRAL>
3.96198

>  <SCORE.INTRA.DIHEDRAL.0>
5.55665

>  <SCORE.INTRA.POLAR>
0

>  <SCORE.INTRA.POLAR.0>
0

>  <SCORE.INTRA.REPUL>
0

>  <SCORE.INTRA.REPUL.0>
0

>  <SCORE.INTRA.VDW>
-0.19613

>  <SCORE.INTRA.VDW.0>
-2.56587

>  <SCORE.INTRA.norm>
0.0713944

>  <SCORE.RESTR>
0

>  <SCORE.RESTR.CAVITY>
0

>  <SCORE.RESTR.norm>
0

>  <SCORE.SYSTEM>
-3.36282

>  <SCORE.SYSTEM.CONST>
0

>  <SCORE.SYSTEM.DIHEDRAL>
0.700411

>  <SCORE.SYSTEM.POLAR>
-0.8

>  <SCORE.SYSTEM.VDW>
-0.993025

>  <SCORE.SYSTEM.norm>
-0.134513

>  <SCORE.heavy>
25

>  <SCORE.norm>
-0.606679

$$$$
BRL.pdb
  rDOCK(R)          3D
libRbt.so/2013.1/901 2013/11/27
 26 28  0  0  0  0  0  0  0  0999 V2000
   11.0238   -0.3567    3.8587 S   0  0  0  0  0  0
   11.7438    2.1625    4.3874 O   0  0  0  0  0  0
    9.0620    0.0184    7.2544 O   0  0  0  0  0  0
   10.9274   -6.8434    2.2333 O   0  0  0  0  0  0
   10.4446    1.2563    5.9422 N   0  0  0  0  0  0
   11.0447   -8.2780   -0.1823 N   0  0  0  0  0  0
   13.1823   -6.9327    0.4670 N   0  0  0  0  0  0
   11.0974    1.1969    4.7919 C   0  0  0  0  0  0
    9.7976    0.1261    6.2593 C   0  0  0  0  0  0
   10.0084   -1.0180    5.2577 C   0  0  0  0  0  0
   10.5883   -2.3575    5.8817 C   0  0  0  0  0  0
   10.7639   -3.5590    4.9742 C   0  0  0  0  0  0
   10.1067   -4.8365    5.2246 C   0  0  0  0  0  0
   10.2185   -5.8868    4.2649 C   0  0  0  0  0  0
   10.9880   -5.7046    3.0546 C   0  0  0  0  0  0
   11.7095   -4.4438    2.8574 C   0  0  0  0  0  0
   11.5958   -3.3791    3.8064 C   0  0  0  0  0  0
   10.1474   -8.0891    2.3169 C   0  0  0  0  0  0
   10.7016   -8.9375    1.1532 C   0  0  0  0  0  0
   10.2174   -8.9623   -1.2803 C   0  0  0  0  0  0
   12.1624   -7.1717   -0.4443 C   0  0  0  0  0  0
   14.1775   -6.0230    0.2909 C   0  0  0  0  0  0
   14.2308   -5.2119   -0.9060 C   0  0  0  0  0  0
   13.2147   -5.3848   -1.9000 C   0  0  0  0  0  0
   12.1808   -6.3560   -1.6772 C   0  0  0  0  0  0
   10.4352    2.0583    6.5130 H   0  0  0  0  0  0
  1  8  1  0  0  0
  1 10  1  0  0  0
  2  8  2  0  0  0
  3  9  2  0  0  0
  4 15  1  0  0  0
  4 18  1  0  0  0
  5  8  1  0  0  0
  5  9  1  0  0  0
  5 26  1  0  0  0
  6 19  1  0  0  0
  6 20  1  0  0  0
  6 21  1  0  0  0
  7 21  2  0  0  0
  7 22  1  0  0  0
  9 10  1  0  0  0
 10 11  1  0  0  0
 11 12  1  0  0  0
 12 13  2  0  0  0
 12 17  1  0  0  0
 13 14  1  0  0  0
 14 15  2  0  0  0
 15 16  1  0  0  0
 16 17  2  0  0  0
 18 19  1  0  0  0
 21 25  1  0  0  0
 22 23  2  0  0  0
 23 24  1  0  0  0
 24 25  2  0  0  0
M  END
>  <CHROM.0>
-86.77634052,-179.08159219,-179.65270840,12.13315992

>  <CHROM.1>
6.73730145,-174.44552650,-121.90118288,16.91652611,-58.43799406,-121.36133782
-39.36687321,11.21620337,-3.97673929,2.79614707,-1.81961471,-0.96393364,-2.71580622

>  <FORMUL>
      BRL    C18 H19 N3 O3 S1

>  <HET>
 BRL  A   1      25

>  <HETNAM>
     BRL 2,4-THIAZOLIDIINEDIONE, 5-[[4-[2-(METHYL-2-PYRIDINYLAMI
   2 BRL NO)ETHOXY]PHENYL]METHYL]-(9CL)

>  <HETSYN>
     BRL BRL49653; ROSIGLITAZONE

>  <Name>
BRL.pdb

>  <RI>
0

>  <Rbt.Current_Directory>
/home/malgorzata/Desktop/rDOCK_IFD/test13/IFD

>  <Rbt.Executable>
rbdock ($Id: //depot/dev/client3/rdock/2013.1/src/exe/rbdock.cxx#4 $)

>  <Rbt.Library>
libRbt.so (2013.1, Build901 2013/11/27)

>  <Rbt.Parameter_File>
/home/malgorzata/Desktop/rDock_2013.1_src/data/scripts/hard_docking.prm

>  <Rbt.Receptor>
cavity.prm

>  <SCORE>
-11.9194

>  <SCORE.INTER>
-10.3666

>  <SCORE.INTER.CONST>
1

>  <SCORE.INTER.POLAR>
0

>  <SCORE.INTER.REPUL>
0

>  <SCORE.INTER.ROT>
7

>  <SCORE.INTER.VDW>
-22.7666

>  <SCORE.INTER.norm>
-0.414664

>  <SCORE.INTRA>
1.10554

>  <SCORE.INTRA.DIHEDRAL>
0.758281

>  <SCORE.INTRA.DIHEDRAL.0>
5.55665

>  <SCORE.INTRA.POLAR>
0

>  <SCORE.INTRA.POLAR.0>
0

>  <SCORE.INTRA.REPUL>
0

>  <SCORE.INTRA.REPUL.0>
0

>  <SCORE.INTRA.VDW>
0.726402

>  <SCORE.INTRA.VDW.0>
-2.56587

>  <SCORE.INTRA.norm>
0.0442217

>  <SCORE.RESTR>
0.6855

>  <SCORE.RESTR.CAVITY>
0.6855

>  <SCORE.RESTR.norm>
0.02742

>  <SCORE.SYSTEM>
-3.34384

>  <SCORE.SYSTEM.CONST>
0

>  <SCORE.SYSTEM.DIHEDRAL>
0.630545

>  <SCORE.SYSTEM.POLAR>
-0.8

>  <SCORE.SYSTEM.VDW>
-0.939116

>  <SCORE.SYSTEM.norm>
-0.133754

>  <SCORE.heavy>
25

>  <SCORE.norm>
-0.476776

$$$$
