TOL.pdb
  rDOCK(R)          3D
libRbt.so/2013.1/901 2013/11/27
 25 26  0  0  0  0  0  0  0  0999 V2000
   23.2929   28.2781   73.2068 C   0  0  0  0  0  0
   22.5061   28.6661   74.2418 F   0  0  0  0  0  0
   24.1207   29.3197   72.9278 F   0  0  0  0  0  0
   24.0709   27.2473   73.6323 F   0  0  0  0  0  0
   22.4532   27.8596   71.9804 C   0  0  0  0  0  0
   22.6302   26.6373   71.2814 C   0  0  0  0  0  0
   23.5588   25.7859   71.6777 O   0  0  0  0  0  0
   24.3584   25.3035   70.6105 C   0  0  0  0  0  0
   21.8102   26.3520   70.1676 C   0  0  0  0  0  0
   20.8292   27.2581   69.7492 C   0  0  0  0  0  0
   20.6521   28.4737   70.4392 C   0  0  0  0  0  0
   19.6580   29.3816   70.0053 C   0  0  0  0  0  0
   19.4812   30.5927   70.6943 C   0  0  0  0  0  0
   20.2797   30.9015   71.7979 C   0  0  0  0  0  0
   21.2622   29.9990   72.2241 C   0  0  0  0  0  0
   21.4591   28.7786   71.5516 C   0  0  0  0  0  0
   18.7509   29.1293   68.8241 C   0  0  0  0  0  0
   19.2895   29.5285   67.2471 S   0  0  0  0  0  0
   17.5488   28.5858   69.0213 N   0  0  0  0  0  0
   17.1575   28.1570   70.3595 C   0  0  0  0  0  0
   16.6088   28.3874   67.9227 C   0  0  0  0  0  0
   16.1011   29.7272   67.3625 C   0  0  0  0  0  0
   16.3569   30.0946   66.2461 O   0  0  0  0  0  0
   15.3502   30.4512   68.1999 O   0  0  0  0  0  0
   15.2569   30.1862   69.0938 H   0  0  0  0  0  0
  1  2  1  0  0  0
  1  3  1  0  0  0
  1  4  1  0  0  0
  1  5  1  0  0  0
  5  6  2  0  0  0
  5 16  1  0  0  0
  6  7  1  0  0  0
  6  9  1  0  0  0
  7  8  1  0  0  0
  9 10  2  0  0  0
 10 11  1  0  0  0
 11 12  2  0  0  0
 11 16  1  0  0  0
 12 13  1  0  0  0
 12 17  1  0  0  0
 13 14  2  0  0  0
 14 15  1  0  0  0
 15 16  2  0  0  0
 17 18  2  0  0  0
 17 19  1  0  0  0
 19 20  1  0  0  0
 19 21  1  0  0  0
 21 22  1  0  0  0
 22 23  2  0  0  0
 22 24  1  0  0  0
 24 25  1  0  0  0
M  END
>  <CHROM.0>
146.29904739,64.56259814,-79.90660304,119.64627876,60.99875456,66.94624362
128.66844969,175.90916872,-61.18859492,-61.54190337,-170.04687586,-61.41326028
-60.50081437,-128.08955887

>  <CHROM.1>
-129.32915272,-132.54449510,-85.09324208,-67.38003182,114.31130610,7.78259180
20.41563790,28.57387339,70.39720893,0.26428413,-0.63169276,0.83239149

>  <FORMUL>
      TOL    C16 H14 F3 N1 O3 S1

>  <HET>
 TOL  A 320      24

>  <HETNAM>
     TOL TOLRESTAT

>  <Name>
TOL.pdb

>  <RI>
0

>  <Rbt.Current_Directory>
/home/malgorzata/Desktop/rDOCK_IFD/Wyniki/1c_aldose_reductase

>  <Rbt.Executable>
rbdock ($Id: //depot/dev/client3/rdock/2013.1/src/exe/rbdock.cxx#4 $)

>  <Rbt.Library>
libRbt.so (2013.1, Build901 2013/11/27)

>  <Rbt.Parameter_File>
/home/malgorzata/Desktop/rDock_2013.1_src/data/scripts/soft_docking.prm

>  <Rbt.Receptor>
cavity.prm

>  <SCORE>
-52.4088

>  <SCORE.INTER>
-35.7805

>  <SCORE.INTER.CONST>
1

>  <SCORE.INTER.POLAR>
-2.50366

>  <SCORE.INTER.REPUL>
0

>  <SCORE.INTER.ROT>
5

>  <SCORE.INTER.VDW>
-37.668

>  <SCORE.INTER.norm>
-1.49085

>  <SCORE.INTRA>
-4.48082

>  <SCORE.INTRA.DIHEDRAL>
3.18552

>  <SCORE.INTRA.DIHEDRAL.0>
16.9783

>  <SCORE.INTRA.POLAR>
0

>  <SCORE.INTRA.POLAR.0>
0

>  <SCORE.INTRA.REPUL>
0

>  <SCORE.INTRA.REPUL.0>
0

>  <SCORE.INTRA.VDW>
-5.11792

>  <SCORE.INTRA.VDW.0>
4.87734

>  <SCORE.INTRA.norm>
-0.186701

>  <SCORE.RESTR>
0.106184

>  <SCORE.RESTR.CAVITY>
0.106184

>  <SCORE.RESTR.norm>
0.00442433

>  <SCORE.SYSTEM>
-12.2537

>  <SCORE.SYSTEM.CONST>
0

>  <SCORE.SYSTEM.DIHEDRAL>
7.22988

>  <SCORE.SYSTEM.POLAR>
-4.33539

>  <SCORE.SYSTEM.REPUL>
1.16943

>  <SCORE.SYSTEM.VDW>
-6.97545

>  <SCORE.SYSTEM.norm>
-0.51057

>  <SCORE.heavy>
24

>  <SCORE.norm>
-2.1837

$$$$
TOL.pdb
  rDOCK(R)          3D
libRbt.so/2013.1/901 2013/11/27
 25 26  0  0  0  0  0  0  0  0999 V2000
   22.6931   28.4539   72.7061 C   0  0  0  0  0  0
   23.4386   27.6272   73.4818 F   0  0  0  0  0  0
   22.1784   29.4079   73.5265 F   0  0  0  0  0  0
   23.5277   29.0795   71.8338 F   0  0  0  0  0  0
   21.5900   27.6822   71.9499 C   0  0  0  0  0  0
   21.7125   26.3297   71.5378 C   0  0  0  0  0  0
   22.8222   25.6638   71.8015 O   0  0  0  0  0  0
   22.7416   24.9064   72.9976 C   0  0  0  0  0  0
   20.6438   25.7171   70.8474 C   0  0  0  0  0  0
   19.4707   26.4271   70.5676 C   0  0  0  0  0  0
   19.3464   27.7707   70.9728 C   0  0  0  0  0  0
   18.1560   28.4777   70.6827 C   0  0  0  0  0  0
   18.0322   29.8167   71.0880 C   0  0  0  0  0  0
   19.0744   30.4482   71.7706 C   0  0  0  0  0  0
   20.2507   29.7437   72.0562 C   0  0  0  0  0  0
   20.3998   28.4012   71.6617 C   0  0  0  0  0  0
   16.9805   27.8743   69.9506 C   0  0  0  0  0  0
   16.6111   28.4076   68.3646 S   0  0  0  0  0  0
   16.2540   26.9244   70.5415 N   0  0  0  0  0  0
   16.6537   26.4131   71.8479 C   0  0  0  0  0  0
   15.0678   26.3607   69.9051 C   0  0  0  0  0  0
   13.7769   26.8245   70.6013 C   0  0  0  0  0  0
   13.3792   26.3204   71.6185 O   0  0  0  0  0  0
   13.1318   27.8314   70.0017 O   0  0  0  0  0  0
   13.6125   28.4726   69.5161 H   0  0  0  0  0  0
  1  2  1  0  0  0
  1  3  1  0  0  0
  1  4  1  0  0  0
  1  5  1  0  0  0
  5  6  2  0  0  0
  5 16  1  0  0  0
  6  7  1  0  0  0
  6  9  1  0  0  0
  7  8  1  0  0  0
  9 10  2  0  0  0
 10 11  1  0  0  0
 11 12  2  0  0  0
 11 16  1  0  0  0
 12 13  1  0  0  0
 12 17  1  0  0  0
 13 14  2  0  0  0
 14 15  1  0  0  0
 15 16  2  0  0  0
 17 18  2  0  0  0
 17 19  1  0  0  0
 19 20  1  0  0  0
 19 21  1  0  0  0
 21 22  1  0  0  0
 22 23  2  0  0  0
 22 24  1  0  0  0
 24 25  1  0  0  0
M  END
>  <CHROM.0>
-18.87110880,41.63749608,-135.78309831,-178.83811106,-92.78686370,-171.78608440
121.04330432,142.04796847,-61.18859492,-61.54190337,-170.47742891,-61.41326028
-60.50081437,169.05032529

>  <CHROM.1>
-30.27159951,94.74474194,-110.51982223,-108.38426279,-80.13345133,-30.65310358
19.04889226,27.66449260,71.26540388,0.01033885,-0.29860674,-0.09593630

>  <FORMUL>
      TOL    C16 H14 F3 N1 O3 S1

>  <HET>
 TOL  A 320      24

>  <HETNAM>
     TOL TOLRESTAT

>  <Name>
TOL.pdb

>  <RI>
0

>  <Rbt.Current_Directory>
/home/malgorzata/Desktop/rDOCK_IFD/Wyniki/1c_aldose_reductase

>  <Rbt.Executable>
rbdock ($Id: //depot/dev/client3/rdock/2013.1/src/exe/rbdock.cxx#4 $)

>  <Rbt.Library>
libRbt.so (2013.1, Build901 2013/11/27)

>  <Rbt.Parameter_File>
/home/malgorzata/Desktop/rDock_2013.1_src/data/scripts/soft_docking.prm

>  <Rbt.Receptor>
cavity.prm

>  <SCORE>
-42.3419

>  <SCORE.INTER>
-29.2517

>  <SCORE.INTER.CONST>
1

>  <SCORE.INTER.POLAR>
-2.67327

>  <SCORE.INTER.REPUL>
0.0563704

>  <SCORE.INTER.ROT>
5

>  <SCORE.INTER.VDW>
-30.8444

>  <SCORE.INTER.norm>
-1.21882

>  <SCORE.INTRA>
-2.42577

>  <SCORE.INTRA.DIHEDRAL>
9.48567

>  <SCORE.INTRA.DIHEDRAL.0>
16.9783

>  <SCORE.INTRA.POLAR>
0

>  <SCORE.INTRA.POLAR.0>
0

>  <SCORE.INTRA.REPUL>
0

>  <SCORE.INTRA.REPUL.0>
0

>  <SCORE.INTRA.VDW>
-4.3229

>  <SCORE.INTRA.VDW.0>
4.87734

>  <SCORE.INTRA.norm>
-0.101074

>  <SCORE.RESTR>
0.108006

>  <SCORE.RESTR.CAVITY>
0.108006

>  <SCORE.RESTR.norm>
0.00450027

>  <SCORE.SYSTEM>
-10.7724

>  <SCORE.SYSTEM.CONST>
0

>  <SCORE.SYSTEM.DIHEDRAL>
8.5943

>  <SCORE.SYSTEM.POLAR>
-3.90936

>  <SCORE.SYSTEM.REPUL>
1.16943

>  <SCORE.SYSTEM.VDW>
-7.62493

>  <SCORE.SYSTEM.norm>
-0.448851

>  <SCORE.heavy>
24

>  <SCORE.norm>
-1.76425

$$$$
TOL.pdb
  rDOCK(R)          3D
libRbt.so/2013.1/901 2013/11/27
 25 26  0  0  0  0  0  0  0  0999 V2000
   19.6954   28.4593   71.4578 C   0  0  0  0  0  0
   18.8546   29.3453   72.0483 F   0  0  0  0  0  0
   20.9069   28.6046   72.0573 F   0  0  0  0  0  0
   19.2528   27.2052   71.7412 F   0  0  0  0  0  0
   19.7731   28.6799   69.9316 C   0  0  0  0  0  0
   20.9901   28.7941   69.2105 C   0  0  0  0  0  0
   22.1410   28.7110   69.8530 O   0  0  0  0  0  0
   22.6396   27.3854   69.9250 C   0  0  0  0  0  0
   20.9504   28.9990   67.8139 C   0  0  0  0  0  0
   19.7288   29.0892   67.1373 C   0  0  0  0  0  0
   18.5185   28.9788   67.8500 C   0  0  0  0  0  0
   17.2903   29.0732   67.1545 C   0  0  0  0  0  0
   16.0841   28.9619   67.8654 C   0  0  0  0  0  0
   16.0939   28.7611   69.2476 C   0  0  0  0  0  0
   17.3124   28.6676   69.9316 C   0  0  0  0  0  0
   18.5349   28.7752   69.2428 C   0  0  0  0  0  0
   17.1865   29.2888   65.6630 C   0  0  0  0  0  0
   17.2443   30.8823   65.0355 S   0  0  0  0  0  0
   17.0658   28.2363   64.8524 N   0  0  0  0  0  0
   17.1269   26.8867   65.4024 C   0  0  0  0  0  0
   16.8914   28.3953   63.4122 C   0  0  0  0  0  0
   18.2395   28.5841   62.6957 C   0  0  0  0  0  0
   18.8788   29.5989   62.7877 O   0  0  0  0  0  0
   18.6546   27.5398   61.9701 O   0  0  0  0  0  0
   19.4632   27.5884   61.4992 H   0  0  0  0  0  0
  1  2  1  0  0  0
  1  3  1  0  0  0
  1  4  1  0  0  0
  1  5  1  0  0  0
  5  6  2  0  0  0
  5 16  1  0  0  0
  6  7  1  0  0  0
  6  9  1  0  0  0
  7  8  1  0  0  0
  9 10  2  0  0  0
 10 11  1  0  0  0
 11 12  2  0  0  0
 11 16  1  0  0  0
 12 13  1  0  0  0
 12 17  1  0  0  0
 13 14  2  0  0  0
 14 15  1  0  0  0
 15 16  2  0  0  0
 17 18  2  0  0  0
 17 19  1  0  0  0
 19 20  1  0  0  0
 19 21  1  0  0  0
 21 22  1  0  0  0
 22 23  2  0  0  0
 22 24  1  0  0  0
 24 25  1  0  0  0
M  END
>  <CHROM.0>
105.50912888,68.87997630,134.32577728,102.83654160,-89.22975974,-75.89405976
172.66773052,169.18095589,-61.18859492,-61.54190337,158.48707041,-61.41326028
-60.50081437,-146.92085695

>  <CHROM.1>
129.86827747,90.53290371,-85.24267149,83.74474313,-71.94817467,179.35170591
18.75083193,28.73986772,67.63938279,1.24138157,-0.16942552,1.57692145

>  <FORMUL>
      TOL    C16 H14 F3 N1 O3 S1

>  <HET>
 TOL  A 320      24

>  <HETNAM>
     TOL TOLRESTAT

>  <Name>
TOL.pdb

>  <RI>
0

>  <Rbt.Current_Directory>
/home/malgorzata/Desktop/rDOCK_IFD/Wyniki/1c_aldose_reductase

>  <Rbt.Executable>
rbdock ($Id: //depot/dev/client3/rdock/2013.1/src/exe/rbdock.cxx#4 $)

>  <Rbt.Library>
libRbt.so (2013.1, Build901 2013/11/27)

>  <Rbt.Parameter_File>
/home/malgorzata/Desktop/rDock_2013.1_src/data/scripts/soft_docking.prm

>  <Rbt.Receptor>
cavity.prm

>  <SCORE>
-39.4943

>  <SCORE.INTER>
-28.7384

>  <SCORE.INTER.CONST>
1

>  <SCORE.INTER.POLAR>
-1.45703

>  <SCORE.INTER.REPUL>
0.0728892

>  <SCORE.INTER.ROT>
5

>  <SCORE.INTER.VDW>
-34.5489

>  <SCORE.INTER.norm>
-1.19743

>  <SCORE.INTRA>
-6.67059

>  <SCORE.INTRA.DIHEDRAL>
5.05029

>  <SCORE.INTRA.DIHEDRAL.0>
16.9783

>  <SCORE.INTRA.POLAR>
0

>  <SCORE.INTRA.POLAR.0>
0

>  <SCORE.INTRA.REPUL>
0

>  <SCORE.INTRA.REPUL.0>
0

>  <SCORE.INTRA.VDW>
-7.68065

>  <SCORE.INTRA.VDW.0>
4.87734

>  <SCORE.INTRA.norm>
-0.277941

>  <SCORE.RESTR>
0.182188

>  <SCORE.RESTR.CAVITY>
0.182188

>  <SCORE.RESTR.norm>
0.00759118

>  <SCORE.SYSTEM>
-4.26755

>  <SCORE.SYSTEM.CONST>
0

>  <SCORE.SYSTEM.DIHEDRAL>
17.5276

>  <SCORE.SYSTEM.POLAR>
-3.44895

>  <SCORE.SYSTEM.REPUL>
1.16943

>  <SCORE.SYSTEM.VDW>
-7.15206

>  <SCORE.SYSTEM.norm>
-0.177815

>  <SCORE.heavy>
24

>  <SCORE.norm>
-1.6456

$$$$
TOL.pdb
  rDOCK(R)          3D
libRbt.so/2013.1/901 2013/11/27
 25 26  0  0  0  0  0  0  0  0999 V2000
   23.6584   28.8409   73.7511 C   0  0  0  0  0  0
   23.8319   30.1864   73.7655 F   0  0  0  0  0  0
   24.8939   28.2822   73.8491 F   0  0  0  0  0  0
   22.9683   28.4930   74.8698 F   0  0  0  0  0  0
   22.9113   28.3779   72.4815 C   0  0  0  0  0  0
   23.2633   27.2240   71.7341 C   0  0  0  0  0  0
   24.2846   26.4809   72.1206 O   0  0  0  0  0  0
   23.8841   25.2772   72.7543 C   0  0  0  0  0  0
   22.5157   26.8899   70.5836 C   0  0  0  0  0  0
   21.4360   27.6814   70.1759 C   0  0  0  0  0  0
   21.0850   28.8291   70.9139 C   0  0  0  0  0  0
   19.9924   29.6215   70.4905 C   0  0  0  0  0  0
   19.6423   30.7648   71.2273 C   0  0  0  0  0  0
   20.3659   31.1199   72.3681 C   0  0  0  0  0  0
   21.4464   30.3317   72.7837 C   0  0  0  0  0  0
   21.8172   29.1810   72.0636 C   0  0  0  0  0  0
   19.1559   29.3122   69.2713 C   0  0  0  0  0  0
   19.8995   29.2656   67.7283 S   0  0  0  0  0  0
   17.8527   29.0649   69.4125 N   0  0  0  0  0  0
   17.2662   29.0053   70.7468 C   0  0  0  0  0  0
   16.9886   28.8308   68.2599 C   0  0  0  0  0  0
   17.3274   27.5044   67.5582 C   0  0  0  0  0  0
   18.1245   27.4386   66.6597 O   0  0  0  0  0  0
   16.6801   26.4291   68.0210 O   0  0  0  0  0  0
   16.9173   25.5740   67.7201 H   0  0  0  0  0  0
  1  2  1  0  0  0
  1  3  1  0  0  0
  1  4  1  0  0  0
  1  5  1  0  0  0
  5  6  2  0  0  0
  5 16  1  0  0  0
  6  7  1  0  0  0
  6  9  1  0  0  0
  7  8  1  0  0  0
  9 10  2  0  0  0
 10 11  1  0  0  0
 11 12  2  0  0  0
 11 16  1  0  0  0
 12 13  1  0  0  0
 12 17  1  0  0  0
 13 14  2  0  0  0
 14 15  1  0  0  0
 15 16  2  0  0  0
 17 18  2  0  0  0
 17 19  1  0  0  0
 19 20  1  0  0  0
 19 21  1  0  0  0
 21 22  1  0  0  0
 22 23  2  0  0  0
 22 24  1  0  0  0
 24 25  1  0  0  0
M  END
>  <CHROM.0>
8.07265820,61.00333212,-169.49652791,141.72059400,65.68496041,-172.22960285
111.45252309,-131.20759373,-61.18859492,-61.54190337,-69.97541671,-61.41326028
-60.50081437,152.47500798

>  <CHROM.1>
138.15363761,103.86554332,-60.77102741,67.98358270,-90.71638964,-171.96111334
20.91578552,28.51442788,70.90407807,0.40969958,-0.62624441,0.64116573

>  <FORMUL>
      TOL    C16 H14 F3 N1 O3 S1

>  <HET>
 TOL  A 320      24

>  <HETNAM>
     TOL TOLRESTAT

>  <Name>
TOL.pdb

>  <RI>
0

>  <Rbt.Current_Directory>
/home/malgorzata/Desktop/rDOCK_IFD/Wyniki/1c_aldose_reductase

>  <Rbt.Executable>
rbdock ($Id: //depot/dev/client3/rdock/2013.1/src/exe/rbdock.cxx#4 $)

>  <Rbt.Library>
libRbt.so (2013.1, Build901 2013/11/27)

>  <Rbt.Parameter_File>
/home/malgorzata/Desktop/rDock_2013.1_src/data/scripts/soft_docking.prm

>  <Rbt.Receptor>
cavity.prm

>  <SCORE>
-48.6523

>  <SCORE.INTER>
-30.7015

>  <SCORE.INTER.CONST>
1

>  <SCORE.INTER.POLAR>
-0.681884

>  <SCORE.INTER.REPUL>
0

>  <SCORE.INTER.ROT>
5

>  <SCORE.INTER.VDW>
-38.7831

>  <SCORE.INTER.norm>
-1.27923

>  <SCORE.INTRA>
-4.67042

>  <SCORE.INTRA.DIHEDRAL>
2.25859

>  <SCORE.INTRA.DIHEDRAL.0>
16.9783

>  <SCORE.INTRA.POLAR>
0

>  <SCORE.INTRA.POLAR.0>
0

>  <SCORE.INTRA.REPUL>
0

>  <SCORE.INTRA.REPUL.0>
0

>  <SCORE.INTRA.VDW>
-5.12214

>  <SCORE.INTRA.VDW.0>
4.87734

>  <SCORE.INTRA.norm>
-0.194601

>  <SCORE.RESTR>
0.45914

>  <SCORE.RESTR.CAVITY>
0.45914

>  <SCORE.RESTR.norm>
0.0191308

>  <SCORE.SYSTEM>
-13.7395

>  <SCORE.SYSTEM.CONST>
0

>  <SCORE.SYSTEM.DIHEDRAL>
4.35263

>  <SCORE.SYSTEM.POLAR>
-4.09232

>  <SCORE.SYSTEM.REPUL>
1.16943

>  <SCORE.SYSTEM.VDW>
-7.84911

>  <SCORE.SYSTEM.norm>
-0.57248

>  <SCORE.heavy>
24

>  <SCORE.norm>
-2.02718

$$$$
TOL.pdb
  rDOCK(R)          3D
libRbt.so/2013.1/901 2013/11/27
 25 26  0  0  0  0  0  0  0  0999 V2000
   23.7767   28.6436   72.9691 C   0  0  0  0  0  0
   23.0703   29.2909   73.9298 F   0  0  0  0  0  0
   23.4196   29.1935   71.7782 F   0  0  0  0  0  0
   25.0951   28.9160   73.1600 F   0  0  0  0  0  0
   23.5220   27.1211   73.0049 C   0  0  0  0  0  0
   22.7749   26.4216   72.0218 C   0  0  0  0  0  0
   22.2538   27.0822   71.0038 O   0  0  0  0  0  0
   22.9786   26.9017   69.7984 C   0  0  0  0  0  0
   22.5973   25.0266   72.1504 C   0  0  0  0  0  0
   23.1487   24.3307   73.2321 C   0  0  0  0  0  0
   23.8889   25.0221   74.2114 C   0  0  0  0  0  0
   24.4399   24.3073   75.3007 C   0  0  0  0  0  0
   25.1788   24.9969   76.2760 C   0  0  0  0  0  0
   25.3683   26.3770   76.1748 C   0  0  0  0  0  0
   24.8214   27.0802   75.0942 C   0  0  0  0  0  0
   24.0776   26.4129   74.1032 C   0  0  0  0  0  0
   24.2851   22.8165   75.4887 C   0  0  0  0  0  0
   24.7834   21.7531   74.2409 S   0  0  0  0  0  0
   23.7765   22.3459   76.6286 N   0  0  0  0  0  0
   23.4601   23.2656   77.7157 C   0  0  0  0  0  0
   23.5415   20.9198   76.8308 C   0  0  0  0  0  0
   24.2881   20.3925   78.0681 C   0  0  0  0  0  0
   25.3109   20.8892   78.4608 O   0  0  0  0  0  0
   23.7178   19.3490   78.6807 O   0  0  0  0  0  0
   24.0481   19.0523   79.5058 H   0  0  0  0  0  0
  1  2  1  0  0  0
  1  3  1  0  0  0
  1  4  1  0  0  0
  1  5  1  0  0  0
  5  6  2  0  0  0
  5 16  1  0  0  0
  6  7  1  0  0  0
  6  9  1  0  0  0
  7  8  1  0  0  0
  9 10  2  0  0  0
 10 11  1  0  0  0
 11 12  2  0  0  0
 11 16  1  0  0  0
 12 13  1  0  0  0
 12 17  1  0  0  0
 13 14  2  0  0  0
 14 15  1  0  0  0
 15 16  2  0  0  0
 17 18  2  0  0  0
 17 19  1  0  0  0
 19 20  1  0  0  0
 19 21  1  0  0  0
 21 22  1  0  0  0
 22 23  2  0  0  0
 22 24  1  0  0  0
 24 25  1  0  0  0
M  END
>  <CHROM.0>
-28.44419400,23.01770804,-63.39406358,174.74214779,-44.03037783,-76.52197092
139.61104366,80.41741274,-61.18859492,-61.54190337,-109.58171908,-61.41326028
-60.50081437,-154.92062322

>  <CHROM.1>
108.62293487,103.70275854,55.83780430,122.89985499,-28.38141051,-171.38117637
23.93256941,24.89083159,74.55262615,-1.86136282,1.23434538,2.78831893

>  <FORMUL>
      TOL    C16 H14 F3 N1 O3 S1

>  <HET>
 TOL  A 320      24

>  <HETNAM>
     TOL TOLRESTAT

>  <Name>
TOL.pdb

>  <RI>
0

>  <Rbt.Current_Directory>
/home/malgorzata/Desktop/rDOCK_IFD/Wyniki/1c_aldose_reductase

>  <Rbt.Executable>
rbdock ($Id: //depot/dev/client3/rdock/2013.1/src/exe/rbdock.cxx#4 $)

>  <Rbt.Library>
libRbt.so (2013.1, Build901 2013/11/27)

>  <Rbt.Parameter_File>
/home/malgorzata/Desktop/rDock_2013.1_src/data/scripts/soft_docking.prm

>  <Rbt.Receptor>
cavity.prm

>  <SCORE>
-37.1593

>  <SCORE.INTER>
-25.0278

>  <SCORE.INTER.CONST>
1

>  <SCORE.INTER.POLAR>
-2.25564

>  <SCORE.INTER.REPUL>
0

>  <SCORE.INTER.ROT>
5

>  <SCORE.INTER.VDW>
-27.7586

>  <SCORE.INTER.norm>
-1.04282

>  <SCORE.INTRA>
-3.38562

>  <SCORE.INTRA.DIHEDRAL>
1.2108

>  <SCORE.INTRA.DIHEDRAL.0>
16.9783

>  <SCORE.INTRA.POLAR>
0

>  <SCORE.INTRA.POLAR.0>
0

>  <SCORE.INTRA.REPUL>
0

>  <SCORE.INTRA.REPUL.0>
0

>  <SCORE.INTRA.VDW>
-3.62777

>  <SCORE.INTRA.VDW.0>
4.87734

>  <SCORE.INTRA.norm>
-0.141067

>  <SCORE.RESTR>
0.0869521

>  <SCORE.RESTR.CAVITY>
0.0869521

>  <SCORE.RESTR.norm>
0.003623

>  <SCORE.SYSTEM>
-8.83283

>  <SCORE.SYSTEM.CONST>
0

>  <SCORE.SYSTEM.DIHEDRAL>
16.6668

>  <SCORE.SYSTEM.POLAR>
-4.43791

>  <SCORE.SYSTEM.REPUL>
1.16943

>  <SCORE.SYSTEM.VDW>
-7.92449

>  <SCORE.SYSTEM.norm>
-0.368035

>  <SCORE.heavy>
24

>  <SCORE.norm>
-1.5483

$$$$
TOL.pdb
  rDOCK(R)          3D
libRbt.so/2013.1/901 2013/11/27
 25 26  0  0  0  0  0  0  0  0999 V2000
   24.1561   28.2068   73.4063 C   0  0  0  0  0  0
   24.9951   27.2173   73.8035 F   0  0  0  0  0  0
   23.5994   28.7280   74.5317 F   0  0  0  0  0  0
   24.9030   29.1882   72.8339 F   0  0  0  0  0  0
   23.0893   27.6852   72.4193 C   0  0  0  0  0  0
   23.2678   26.5458   71.5922 C   0  0  0  0  0  0
   24.4011   25.8698   71.6462 O   0  0  0  0  0  0
   24.2679   24.6184   72.2998 C   0  0  0  0  0  0
   22.2287   26.1543   70.7198 C   0  0  0  0  0  0
   21.0304   26.8750   70.6637 C   0  0  0  0  0  0
   20.8505   28.0081   71.4814 C   0  0  0  0  0  0
   19.6351   28.7288   71.4142 C   0  0  0  0  0  0
   19.4559   29.8576   72.2305 C   0  0  0  0  0  0
   20.4678   30.2685   73.1012 C   0  0  0  0  0  0
   21.6691   29.5513   73.1646 C   0  0  0  0  0  0
   21.8736   28.4165   72.3579 C   0  0  0  0  0  0
   18.4892   28.3559   70.5034 C   0  0  0  0  0  0
   18.5755   28.7455   68.8370 S   0  0  0  0  0  0
   17.4316   27.7155   71.0042 N   0  0  0  0  0  0
   17.4302   27.3010   72.4028 C   0  0  0  0  0  0
   16.2695   27.3962   70.1811 C   0  0  0  0  0  0
   15.1528   28.4409   70.3481 C   0  0  0  0  0  0
   15.3235   29.4743   70.9397 O   0  0  0  0  0  0
   13.9820   28.1241   69.7839 O   0  0  0  0  0  0
   13.2610   28.7204   69.8346 H   0  0  0  0  0  0
  1  2  1  0  0  0
  1  3  1  0  0  0
  1  4  1  0  0  0
  1  5  1  0  0  0
  5  6  2  0  0  0
  5 16  1  0  0  0
  6  7  1  0  0  0
  6  9  1  0  0  0
  7  8  1  0  0  0
  9 10  2  0  0  0
 10 11  1  0  0  0
 11 12  2  0  0  0
 11 16  1  0  0  0
 12 13  1  0  0  0
 12 17  1  0  0  0
 13 14  2  0  0  0
 14 15  1  0  0  0
 15 16  2  0  0  0
 17 18  2  0  0  0
 17 19  1  0  0  0
 19 20  1  0  0  0
 19 21  1  0  0  0
 21 22  1  0  0  0
 22 23  2  0  0  0
 22 24  1  0  0  0
 24 25  1  0  0  0
M  END
>  <CHROM.0>
131.63629849,24.29940998,-108.64421475,169.64204543,85.55987251,-60.40140327
-115.41928725,-111.19093930,-61.18859492,-61.54190337,39.06205183,-61.41326028
-60.50081437,-72.40258953

>  <CHROM.1>
-25.40954479,107.08324558,-77.71407440,-97.04648092,9.73302606,-179.03551895
20.50905508,28.01048637,71.65387878,0.09260746,-0.32704250,0.63970880

>  <FORMUL>
      TOL    C16 H14 F3 N1 O3 S1

>  <HET>
 TOL  A 320      24

>  <HETNAM>
     TOL TOLRESTAT

>  <Name>
TOL.pdb

>  <RI>
0

>  <Rbt.Current_Directory>
/home/malgorzata/Desktop/rDOCK_IFD/Wyniki/1c_aldose_reductase

>  <Rbt.Executable>
rbdock ($Id: //depot/dev/client3/rdock/2013.1/src/exe/rbdock.cxx#4 $)

>  <Rbt.Library>
libRbt.so (2013.1, Build901 2013/11/27)

>  <Rbt.Parameter_File>
/home/malgorzata/Desktop/rDock_2013.1_src/data/scripts/soft_docking.prm

>  <Rbt.Receptor>
cavity.prm

>  <SCORE>
-43.139

>  <SCORE.INTER>
-30.7224

>  <SCORE.INTER.CONST>
1

>  <SCORE.INTER.POLAR>
-1.79748

>  <SCORE.INTER.REPUL>
0.0124815

>  <SCORE.INTER.ROT>
5

>  <SCORE.INTER.VDW>
-35.0734

>  <SCORE.INTER.norm>
-1.2801

>  <SCORE.INTRA>
-5.12428

>  <SCORE.INTRA.DIHEDRAL>
4.07066

>  <SCORE.INTRA.DIHEDRAL.0>
16.9783

>  <SCORE.INTRA.POLAR>
0

>  <SCORE.INTRA.POLAR.0>
0

>  <SCORE.INTRA.REPUL>
0

>  <SCORE.INTRA.REPUL.0>
0

>  <SCORE.INTRA.VDW>
-5.93842

>  <SCORE.INTRA.VDW.0>
4.87734

>  <SCORE.INTRA.norm>
-0.213512

>  <SCORE.RESTR>
0

>  <SCORE.RESTR.CAVITY>
0

>  <SCORE.RESTR.norm>
0

>  <SCORE.SYSTEM>
-7.29229

>  <SCORE.SYSTEM.CONST>
0

>  <SCORE.SYSTEM.DIHEDRAL>
13.7195

>  <SCORE.SYSTEM.POLAR>
-3.52942

>  <SCORE.SYSTEM.REPUL>
1.16943

>  <SCORE.SYSTEM.VDW>
-7.99915

>  <SCORE.SYSTEM.norm>
-0.303845

>  <SCORE.heavy>
24

>  <SCORE.norm>
-1.79746

$$$$
TOL.pdb
  rDOCK(R)          3D
libRbt.so/2013.1/901 2013/11/27
 25 26  0  0  0  0  0  0  0  0999 V2000
   15.8880   29.9067   65.9606 C   0  0  0  0  0  0
   14.8866   29.0114   65.7699 F   0  0  0  0  0  0
   16.2788   30.3305   64.7294 F   0  0  0  0  0  0
   15.3727   30.9827   66.6128 F   0  0  0  0  0  0
   17.0566   29.2906   66.7600 C   0  0  0  0  0  0
   18.2485   28.8000   66.1661 C   0  0  0  0  0  0
   18.3983   28.8596   64.8552 O   0  0  0  0  0  0
   17.7299   27.8107   64.1741 C   0  0  0  0  0  0
   19.2566   28.2513   66.9888 C   0  0  0  0  0  0
   19.0927   28.1875   68.3771 C   0  0  0  0  0  0
   17.9098   28.6712   68.9702 C   0  0  0  0  0  0
   17.7559   28.5997   70.3745 C   0  0  0  0  0  0
   16.5769   29.0832   70.9653 C   0  0  0  0  0  0
   15.5626   29.6291   70.1753 C   0  0  0  0  0  0
   15.7200   29.6984   68.7854 C   0  0  0  0  0  0
   16.8917   29.2216   68.1689 C   0  0  0  0  0  0
   18.7999   28.0266   71.3037 C   0  0  0  0  0  0
   18.5802   26.4559   71.9523 S   0  0  0  0  0  0
   19.8861   28.7437   71.5960 N   0  0  0  0  0  0
   20.1005   30.0324   70.9471 C   0  0  0  0  0  0
   20.8881   28.2642   72.5426 C   0  0  0  0  0  0
   22.1471   27.7507   71.8230 C   0  0  0  0  0  0
   23.0869   28.4631   71.5862 O   0  0  0  0  0  0
   22.1272   26.4563   71.4859 O   0  0  0  0  0  0
   21.3258   25.9728   71.5305 H   0  0  0  0  0  0
  1  2  1  0  0  0
  1  3  1  0  0  0
  1  4  1  0  0  0
  1  5  1  0  0  0
  5  6  2  0  0  0
  5 16  1  0  0  0
  6  7  1  0  0  0
  6  9  1  0  0  0
  7  8  1  0  0  0
  9 10  2  0  0  0
 10 11  1  0  0  0
 11 12  2  0  0  0
 11 16  1  0  0  0
 12 13  1  0  0  0
 12 17  1  0  0  0
 13 14  2  0  0  0
 14 15  1  0  0  0
 15 16  2  0  0  0
 17 18  2  0  0  0
 17 19  1  0  0  0
 19 20  1  0  0  0
 19 21  1  0  0  0
 21 22  1  0  0  0
 22 23  2  0  0  0
 22 24  1  0  0  0
 24 25  1  0  0  0
M  END
>  <CHROM.0>
-45.10834915,61.39824122,-79.79390618,-177.39202545,-73.96751956,40.22671625
-162.01177204,-105.52303620,-61.18859492,-61.54190337,175.64952618,-61.41326028
-60.50081437,159.06449861

>  <CHROM.1>
99.54376992,-80.48717998,-103.01892577,103.98003745,91.28131214,12.34174630
18.24475200,28.68648327,68.83506069,2.21536656,0.28824356,-1.49012679

>  <FORMUL>
      TOL    C16 H14 F3 N1 O3 S1

>  <HET>
 TOL  A 320      24

>  <HETNAM>
     TOL TOLRESTAT

>  <Name>
TOL.pdb

>  <RI>
0

>  <Rbt.Current_Directory>
/home/malgorzata/Desktop/rDOCK_IFD/Wyniki/1c_aldose_reductase

>  <Rbt.Executable>
rbdock ($Id: //depot/dev/client3/rdock/2013.1/src/exe/rbdock.cxx#4 $)

>  <Rbt.Library>
libRbt.so (2013.1, Build901 2013/11/27)

>  <Rbt.Parameter_File>
/home/malgorzata/Desktop/rDock_2013.1_src/data/scripts/soft_docking.prm

>  <Rbt.Receptor>
cavity.prm

>  <SCORE>
-42.5179

>  <SCORE.INTER>
-28.0877

>  <SCORE.INTER.CONST>
1

>  <SCORE.INTER.POLAR>
-1.21672

>  <SCORE.INTER.REPUL>
0

>  <SCORE.INTER.ROT>
5

>  <SCORE.INTER.VDW>
-34.3509

>  <SCORE.INTER.norm>
-1.17032

>  <SCORE.INTRA>
-5.52163

>  <SCORE.INTRA.DIHEDRAL>
5.35048

>  <SCORE.INTRA.DIHEDRAL.0>
16.9783

>  <SCORE.INTRA.POLAR>
-0.0668716

>  <SCORE.INTRA.POLAR.0>
0

>  <SCORE.INTRA.REPUL>
0

>  <SCORE.INTRA.REPUL.0>
0

>  <SCORE.INTRA.VDW>
-6.36436

>  <SCORE.INTRA.VDW.0>
4.87734

>  <SCORE.INTRA.norm>
-0.230068

>  <SCORE.RESTR>
0

>  <SCORE.RESTR.CAVITY>
0

>  <SCORE.RESTR.norm>
0

>  <SCORE.SYSTEM>
-8.90859

>  <SCORE.SYSTEM.CONST>
0

>  <SCORE.SYSTEM.DIHEDRAL>
6.89065

>  <SCORE.SYSTEM.POLAR>
-2.9891

>  <SCORE.SYSTEM.REPUL>
1.16943

>  <SCORE.SYSTEM.VDW>
-8.03813

>  <SCORE.SYSTEM.norm>
-0.371191

>  <SCORE.heavy>
24

>  <SCORE.norm>
-1.77158

$$$$
TOL.pdb
  rDOCK(R)          3D
libRbt.so/2013.1/901 2013/11/27
 25 26  0  0  0  0  0  0  0  0999 V2000
   23.7274   28.8856   73.7251 C   0  0  0  0  0  0
   22.9328   28.8934   74.8248 F   0  0  0  0  0  0
   24.1664   30.1597   73.5459 F   0  0  0  0  0  0
   24.8164   28.1182   73.9976 F   0  0  0  0  0  0
   22.9775   28.3506   72.4859 C   0  0  0  0  0  0
   23.3635   27.1877   71.7697 C   0  0  0  0  0  0
   24.4213   26.5002   72.1604 O   0  0  0  0  0  0
   24.2860   25.1056   71.9416 C   0  0  0  0  0  0
   22.6098   26.7854   70.6453 C   0  0  0  0  0  0
   21.4912   27.5183   70.2330 C   0  0  0  0  0  0
   21.1064   28.6747   70.9399 C   0  0  0  0  0  0
   19.9746   29.4075   70.5120 C   0  0  0  0  0  0
   19.5908   30.5595   71.2179 C   0  0  0  0  0  0
   20.3194   30.9814   72.3324 C   0  0  0  0  0  0
   21.4388   30.2521   72.7526 C   0  0  0  0  0  0
   21.8439   29.0941   72.0632 C   0  0  0  0  0  0
   19.1298   29.0240   69.3199 C   0  0  0  0  0  0
   19.4050   29.7878   67.8109 S   0  0  0  0  0  0
   18.1908   28.0860   69.4528 N   0  0  0  0  0  0
   18.0490   27.3760   70.7192 C   0  0  0  0  0  0
   17.3023   27.7306   68.3508 C   0  0  0  0  0  0
   16.5111   28.9493   67.8456 C   0  0  0  0  0  0
   16.7470   29.4752   66.7898 O   0  0  0  0  0  0
   15.5386   29.3785   68.6576 O   0  0  0  0  0  0
   14.6766   29.5238   68.3202 H   0  0  0  0  0  0
  1  2  1  0  0  0
  1  3  1  0  0  0
  1  4  1  0  0  0
  1  5  1  0  0  0
  5  6  2  0  0  0
  5 16  1  0  0  0
  6  7  1  0  0  0
  6  9  1  0  0  0
  7  8  1  0  0  0
  9 10  2  0  0  0
 10 11  1  0  0  0
 11 12  2  0  0  0
 11 16  1  0  0  0
 12 13  1  0  0  0
 12 17  1  0  0  0
 13 14  2  0  0  0
 14 15  1  0  0  0
 15 16  2  0  0  0
 17 18  2  0  0  0
 17 19  1  0  0  0
 19 20  1  0  0  0
 19 21  1  0  0  0
 21 22  1  0  0  0
 22 23  2  0  0  0
 22 24  1  0  0  0
 24 25  1  0  0  0
M  END
>  <CHROM.0>
-88.36803785,32.94855421,-13.15475120,159.53501966,179.34780885,-65.44751089
138.17810055,-168.96593768,-61.18859492,-61.54190337,-149.31966663,-61.41326028
-60.50081437,-28.32419233

>  <CHROM.1>
-118.46031214,146.17724726,-97.60795651,-57.88058069,107.79894479,-129.71035759
20.82783343,28.64811949,70.92781619,0.26305382,-0.61303449,0.63005346

>  <FORMUL>
      TOL    C16 H14 F3 N1 O3 S1

>  <HET>
 TOL  A 320      24

>  <HETNAM>
     TOL TOLRESTAT

>  <Name>
TOL.pdb

>  <RI>
0

>  <Rbt.Current_Directory>
/home/malgorzata/Desktop/rDOCK_IFD/Wyniki/1c_aldose_reductase

>  <Rbt.Executable>
rbdock ($Id: //depot/dev/client3/rdock/2013.1/src/exe/rbdock.cxx#4 $)

>  <Rbt.Library>
libRbt.so (2013.1, Build901 2013/11/27)

>  <Rbt.Parameter_File>
/home/malgorzata/Desktop/rDock_2013.1_src/data/scripts/soft_docking.prm

>  <Rbt.Receptor>
cavity.prm

>  <SCORE>
-48.9071

>  <SCORE.INTER>
-38.1044

>  <SCORE.INTER.CONST>
1

>  <SCORE.INTER.POLAR>
-3.16632

>  <SCORE.INTER.REPUL>
0.268193

>  <SCORE.INTER.ROT>
5

>  <SCORE.INTER.VDW>
-39.0799

>  <SCORE.INTER.norm>
-1.58768

>  <SCORE.INTRA>
-0.00293741

>  <SCORE.INTRA.DIHEDRAL>
15.1984

>  <SCORE.INTRA.DIHEDRAL.0>
16.9783

>  <SCORE.INTRA.POLAR>
0

>  <SCORE.INTRA.POLAR.0>
0

>  <SCORE.INTRA.REPUL>
0

>  <SCORE.INTRA.REPUL.0>
0

>  <SCORE.INTRA.VDW>
-3.04261

>  <SCORE.INTRA.VDW.0>
4.87734

>  <SCORE.INTRA.norm>
-0.000122392

>  <SCORE.RESTR>
0.229272

>  <SCORE.RESTR.CAVITY>
0.229272

>  <SCORE.RESTR.norm>
0.009553

>  <SCORE.SYSTEM>
-11.029

>  <SCORE.SYSTEM.CONST>
0

>  <SCORE.SYSTEM.DIHEDRAL>
13.7604

>  <SCORE.SYSTEM.POLAR>
-4.93928

>  <SCORE.SYSTEM.REPUL>
1.16943

>  <SCORE.SYSTEM.VDW>
-6.9628

>  <SCORE.SYSTEM.norm>
-0.459542

>  <SCORE.heavy>
24

>  <SCORE.norm>
-2.03779

$$$$
TOL.pdb
  rDOCK(R)          3D
libRbt.so/2013.1/901 2013/11/27
 25 26  0  0  0  0  0  0  0  0999 V2000
   16.1931   29.7548   67.3638 C   0  0  0  0  0  0
   16.1989   30.3505   66.1449 F   0  0  0  0  0  0
   15.7120   30.6687   68.2478 F   0  0  0  0  0  0
   15.3060   28.7250   67.3253 F   0  0  0  0  0  0
   17.5988   29.2513   67.7571 C   0  0  0  0  0  0
   18.6402   29.0069   66.8244 C   0  0  0  0  0  0
   18.4267   29.2124   65.5373 O   0  0  0  0  0  0
   17.9184   28.0681   64.8715 C   0  0  0  0  0  0
   19.8905   28.5431   67.2888 C   0  0  0  0  0  0
   20.1117   28.3240   68.6532 C   0  0  0  0  0  0
   19.0796   28.5632   69.5819 C   0  0  0  0  0  0
   19.3155   28.3365   70.9581 C   0  0  0  0  0  0
   18.2866   28.5763   71.8836 C   0  0  0  0  0  0
   17.0394   29.0333   71.4517 C   0  0  0  0  0  0
   16.8109   29.2569   70.0882 C   0  0  0  0  0  0
   17.8252   29.0250   69.1406 C   0  0  0  0  0  0
   20.6316   27.8441   71.5126 C   0  0  0  0  0  0
   21.0370   26.1850   71.3736 S   0  0  0  0  0  0
   21.4675   28.7085   72.0899 N   0  0  0  0  0  0
   21.1465   30.1314   72.0997 C   0  0  0  0  0  0
   22.7177   28.2714   72.7030 C   0  0  0  0  0  0
   23.8244   28.0728   71.6531 C   0  0  0  0  0  0
   24.4211   28.9970   71.1665 O   0  0  0  0  0  0
   24.0819   26.8019   71.3246 O   0  0  0  0  0  0
   24.8348   26.5954   70.8064 H   0  0  0  0  0  0
  1  2  1  0  0  0
  1  3  1  0  0  0
  1  4  1  0  0  0
  1  5  1  0  0  0
  5  6  2  0  0  0
  5 16  1  0  0  0
  6  7  1  0  0  0
  6  9  1  0  0  0
  7  8  1  0  0  0
  9 10  2  0  0  0
 10 11  1  0  0  0
 11 12  2  0  0  0
 11 16  1  0  0  0
 12 13  1  0  0  0
 12 17  1  0  0  0
 13 14  2  0  0  0
 14 15  1  0  0  0
 15 16  2  0  0  0
 17 18  2  0  0  0
 17 19  1  0  0  0
 19 20  1  0  0  0
 19 21  1  0  0  0
 21 22  1  0  0  0
 22 23  2  0  0  0
 22 24  1  0  0  0
 24 25  1  0  0  0
M  END
>  <CHROM.0>
-17.93782562,66.95573436,-120.43467106,142.67416035,-60.10338686,42.15618848
-178.34901382,-145.10993228,-61.18859492,-61.54190337,70.00347953,-61.41326028
-60.50081437,151.31064535

>  <CHROM.1>
-20.60558187,-89.39106445,-77.47371522,81.18135408,77.38800065,-169.59949129
19.34418775,28.64763480,69.45934114,2.48843734,0.27320929,-1.58534109

>  <FORMUL>
      TOL    C16 H14 F3 N1 O3 S1

>  <HET>
 TOL  A 320      24

>  <HETNAM>
     TOL TOLRESTAT

>  <Name>
TOL.pdb

>  <RI>
0

>  <Rbt.Current_Directory>
/home/malgorzata/Desktop/rDOCK_IFD/Wyniki/1c_aldose_reductase

>  <Rbt.Executable>
rbdock ($Id: //depot/dev/client3/rdock/2013.1/src/exe/rbdock.cxx#4 $)

>  <Rbt.Library>
libRbt.so (2013.1, Build901 2013/11/27)

>  <Rbt.Parameter_File>
/home/malgorzata/Desktop/rDock_2013.1_src/data/scripts/soft_docking.prm

>  <Rbt.Receptor>
cavity.prm

>  <SCORE>
-47.5522

>  <SCORE.INTER>
-29.5248

>  <SCORE.INTER.CONST>
1

>  <SCORE.INTER.POLAR>
-1.04474

>  <SCORE.INTER.REPUL>
0.299494

>  <SCORE.INTER.ROT>
5

>  <SCORE.INTER.VDW>
-37.8702

>  <SCORE.INTER.norm>
-1.2302

>  <SCORE.INTRA>
-6.03814

>  <SCORE.INTRA.DIHEDRAL>
5.29613

>  <SCORE.INTRA.DIHEDRAL.0>
16.9783

>  <SCORE.INTRA.POLAR>
0

>  <SCORE.INTRA.POLAR.0>
0

>  <SCORE.INTRA.REPUL>
0

>  <SCORE.INTRA.REPUL.0>
0

>  <SCORE.INTRA.VDW>
-7.09737

>  <SCORE.INTRA.VDW.0>
4.87734

>  <SCORE.INTRA.norm>
-0.251589

>  <SCORE.RESTR>
0.0125978

>  <SCORE.RESTR.CAVITY>
0.0125978

>  <SCORE.RESTR.norm>
0.00052491

>  <SCORE.SYSTEM>
-12.0019

>  <SCORE.SYSTEM.CONST>
0

>  <SCORE.SYSTEM.DIHEDRAL>
5.73404

>  <SCORE.SYSTEM.POLAR>
-3.77042

>  <SCORE.SYSTEM.REPUL>
1.16943

>  <SCORE.SYSTEM.VDW>
-7.89659

>  <SCORE.SYSTEM.norm>
-0.500077

>  <SCORE.heavy>
24

>  <SCORE.norm>
-1.98134

$$$$
TOL.pdb
  rDOCK(R)          3D
libRbt.so/2013.1/901 2013/11/27
 25 26  0  0  0  0  0  0  0  0999 V2000
   23.1404   28.9693   72.9086 C   0  0  0  0  0  0
   22.9446   30.3112   72.9506 F   0  0  0  0  0  0
   24.4651   28.7564   73.1277 F   0  0  0  0  0  0
   22.4647   28.4122   73.9488 F   0  0  0  0  0  0
   22.6703   28.3681   71.5663 C   0  0  0  0  0  0
   23.2198   27.1927   70.9913 C   0  0  0  0  0  0
   24.1911   26.5518   71.6158 O   0  0  0  0  0  0
   23.7245   25.4580   72.3883 C   0  0  0  0  0  0
   22.7196   26.7281   69.7551 C   0  0  0  0  0  0
   21.6921   27.4117   69.0953 C   0  0  0  0  0  0
   21.1459   28.5803   69.6617 C   0  0  0  0  0  0
   20.1086   29.2629   68.9840 C   0  0  0  0  0  0
   19.5637   30.4271   69.5499 C   0  0  0  0  0  0
   20.0408   30.9103   70.7704 C   0  0  0  0  0  0
   21.0673   30.2306   71.4379 C   0  0  0  0  0  0
   21.6300   29.0616   70.8929 C   0  0  0  0  0  0
   19.5327   28.8118   67.6624 C   0  0  0  0  0  0
   20.5238   28.8190   66.2646 S   0  0  0  0  0  0
   18.2654   28.4001   67.6026 N   0  0  0  0  0  0
   17.4762   28.3023   68.8255 C   0  0  0  0  0  0
   17.6421   28.0218   66.3383 C   0  0  0  0  0  0
   17.1115   29.2497   65.5787 C   0  0  0  0  0  0
   16.9827   30.3238   66.1046 O   0  0  0  0  0  0
   16.8104   29.0420   64.2919 O   0  0  0  0  0  0
   17.2255   28.3471   63.8200 H   0  0  0  0  0  0
  1  2  1  0  0  0
  1  3  1  0  0  0
  1  4  1  0  0  0
  1  5  1  0  0  0
  5  6  2  0  0  0
  5 16  1  0  0  0
  6  7  1  0  0  0
  6  9  1  0  0  0
  7  8  1  0  0  0
  9 10  2  0  0  0
 10 11  1  0  0  0
 11 12  2  0  0  0
 11 16  1  0  0  0
 12 13  1  0  0  0
 12 17  1  0  0  0
 13 14  2  0  0  0
 14 15  1  0  0  0
 15 16  2  0  0  0
 17 18  2  0  0  0
 17 19  1  0  0  0
 19 20  1  0  0  0
 19 21  1  0  0  0
 21 22  1  0  0  0
 22 23  2  0  0  0
 22 24  1  0  0  0
 24 25  1  0  0  0
M  END
>  <CHROM.0>
-25.79654121,38.39306271,-121.45486561,154.04335405,153.64859410,-172.88979245
82.30608651,-151.83287885,-61.18859492,-61.54190337,-72.42881375,-61.41326028
-60.50081437,135.83030689

>  <CHROM.1>
152.11175126,97.01607259,-65.17761958,-83.49623092,-14.53422913,-24.77122544
20.83674054,28.66031231,69.59946185,0.53821661,-0.72308756,0.87535825

>  <FORMUL>
      TOL    C16 H14 F3 N1 O3 S1

>  <HET>
 TOL  A 320      24

>  <HETNAM>
     TOL TOLRESTAT

>  <Name>
TOL.pdb

>  <RI>
0

>  <Rbt.Current_Directory>
/home/malgorzata/Desktop/rDOCK_IFD/Wyniki/1c_aldose_reductase

>  <Rbt.Executable>
rbdock ($Id: //depot/dev/client3/rdock/2013.1/src/exe/rbdock.cxx#4 $)

>  <Rbt.Library>
libRbt.so (2013.1, Build901 2013/11/27)

>  <Rbt.Parameter_File>
/home/malgorzata/Desktop/rDock_2013.1_src/data/scripts/soft_docking.prm

>  <Rbt.Receptor>
cavity.prm

>  <SCORE>
-45.2573

>  <SCORE.INTER>
-29.0813

>  <SCORE.INTER.CONST>
1

>  <SCORE.INTER.POLAR>
-0.746356

>  <SCORE.INTER.REPUL>
0

>  <SCORE.INTER.ROT>
5

>  <SCORE.INTER.VDW>
-36.9437

>  <SCORE.INTER.norm>
-1.21172

>  <SCORE.INTRA>
-3.17687

>  <SCORE.INTRA.DIHEDRAL>
6.88181

>  <SCORE.INTRA.DIHEDRAL.0>
16.9783

>  <SCORE.INTRA.POLAR>
0

>  <SCORE.INTRA.POLAR.0>
0

>  <SCORE.INTRA.REPUL>
0

>  <SCORE.INTRA.REPUL.0>
0

>  <SCORE.INTRA.VDW>
-4.55323

>  <SCORE.INTRA.VDW.0>
4.87734

>  <SCORE.INTRA.norm>
-0.132369

>  <SCORE.RESTR>
0

>  <SCORE.RESTR.CAVITY>
0

>  <SCORE.RESTR.norm>
0

>  <SCORE.SYSTEM>
-12.9991

>  <SCORE.SYSTEM.CONST>
0

>  <SCORE.SYSTEM.DIHEDRAL>
9.23497

>  <SCORE.SYSTEM.POLAR>
-4.3497

>  <SCORE.SYSTEM.REPUL>
1.16943

>  <SCORE.SYSTEM.VDW>
-8.67477

>  <SCORE.SYSTEM.norm>
-0.541629

>  <SCORE.heavy>
24

>  <SCORE.norm>
-1.88572

$$$$
