TOL.pdb
  rDOCK(R)          3D
libRbt.so/2013.1/901 2013/11/27
 25 26  0  0  0  0  0  0  0  0999 V2000
   27.6560   24.9211   76.3512 C   0  0  0  0  0  0
   28.7260   25.0078   75.5215 F   0  0  0  0  0  0
   26.7423   25.8275   75.9135 F   0  0  0  0  0  0
   27.1047   23.6874   76.2002 F   0  0  0  0  0  0
   28.0565   25.1649   77.8224 C   0  0  0  0  0  0
   27.3949   26.0821   78.6798 C   0  0  0  0  0  0
   26.3731   26.7835   78.2234 O   0  0  0  0  0  0
   25.1209   26.1731   78.4888 C   0  0  0  0  0  0
   27.8437   26.2329   80.0102 C   0  0  0  0  0  0
   28.9285   25.4897   80.4891 C   0  0  0  0  0  0
   29.5894   24.5800   79.6402 C   0  0  0  0  0  0
   30.6855   23.8359   80.1360 C   0  0  0  0  0  0
   31.3431   22.9283   79.2895 C   0  0  0  0  0  0
   30.9217   22.7608   77.9684 C   0  0  0  0  0  0
   29.8355   23.4992   77.4824 C   0  0  0  0  0  0
   29.1591   24.4146   78.3101 C   0  0  0  0  0  0
   31.2073   23.9532   81.5487 C   0  0  0  0  0  0
   31.0244   22.6343   82.6272 S   0  0  0  0  0  0
   31.8165   25.0754   81.9346 N   0  0  0  0  0  0
   32.0543   26.1410   80.9671 C   0  0  0  0  0  0
   32.2747   25.2647   83.3072 C   0  0  0  0  0  0
   31.1318   25.7267   84.2274 C   0  0  0  0  0  0
   30.7680   26.8723   84.2736 O   0  0  0  0  0  0
   30.5663   24.7656   84.9662 O   0  0  0  0  0  0
   30.8633   23.8802   84.8901 H   0  0  0  0  0  0
  1  2  1  0  0  0
  1  3  1  0  0  0
  1  4  1  0  0  0
  1  5  1  0  0  0
  5  6  2  0  0  0
  5 16  1  0  0  0
  6  7  1  0  0  0
  6  9  1  0  0  0
  7  8  1  0  0  0
  9 10  2  0  0  0
 10 11  1  0  0  0
 11 12  2  0  0  0
 11 16  1  0  0  0
 12 13  1  0  0  0
 12 17  1  0  0  0
 13 14  2  0  0  0
 14 15  1  0  0  0
 15 16  2  0  0  0
 17 18  2  0  0  0
 17 19  1  0  0  0
 19 20  1  0  0  0
 19 21  1  0  0  0
 21 22  1  0  0  0
 22 23  2  0  0  0
 22 24  1  0  0  0
 24 25  1  0  0  0
M  END
>  <CHROM.0>
58.52397884,-104.32886614,4.21674687,67.74635966,-179.94985839,11.76723879
-60.35736690,-6.20476262,-155.91051028,-61.54190337,-171.51385793,-61.41326028
-60.50081437,-147.63289266

>  <CHROM.1>
129.46057409,93.83079732,111.87362394,-82.24885379,-80.34650715,-1.00544297
29.42532981,24.82973733,79.82522851,-2.30015139,-0.66961416,1.12895171

>  <FORMUL>
      TOL    C16 H14 F3 N1 O3 S1

>  <HET>
 TOL  A 320      24

>  <HETNAM>
     TOL TOLRESTAT

>  <Name>
TOL.pdb

>  <RI>
0

>  <Rbt.Current_Directory>
/home/malgorzata/Desktop/rDOCK_IFD/test/IFD

>  <Rbt.Executable>
rbdock ($Id: //depot/dev/client3/rdock/2013.1/src/exe/rbdock.cxx#4 $)

>  <Rbt.Library>
libRbt.so (2013.1, Build901 2013/11/27)

>  <Rbt.Parameter_File>
/home/malgorzata/Desktop/rDock_2013.1_src/data/scripts/hard_docking.prm

>  <Rbt.Receptor>
cavity.prm

>  <SCORE>
-24.0103

>  <SCORE.INTER>
-6.83737

>  <SCORE.INTER.CONST>
1

>  <SCORE.INTER.POLAR>
-0.748354

>  <SCORE.INTER.REPUL>
0

>  <SCORE.INTER.ROT>
5

>  <SCORE.INTER.VDW>
-14.693

>  <SCORE.INTER.norm>
-0.284891

>  <SCORE.INTRA>
-6.1924

>  <SCORE.INTRA.DIHEDRAL>
3.27925

>  <SCORE.INTRA.DIHEDRAL.0>
16.9783

>  <SCORE.INTRA.POLAR>
-0.23926

>  <SCORE.INTRA.POLAR.0>
0

>  <SCORE.INTRA.REPUL>
0

>  <SCORE.INTRA.REPUL.0>
0

>  <SCORE.INTRA.VDW>
-7.01854

>  <SCORE.INTRA.VDW.0>
4.87734

>  <SCORE.INTRA.norm>
-0.258017

>  <SCORE.RESTR>
0

>  <SCORE.RESTR.CAVITY>
0

>  <SCORE.RESTR.norm>
0

>  <SCORE.SYSTEM>
-10.9805

>  <SCORE.SYSTEM.CONST>
0

>  <SCORE.SYSTEM.DIHEDRAL>
2.56645

>  <SCORE.SYSTEM.POLAR>
-2.31378

>  <SCORE.SYSTEM.VDW>
-4.39688

>  <SCORE.SYSTEM.norm>
-0.457522

>  <SCORE.heavy>
24

>  <SCORE.norm>
-1.00043

$$$$
TOL.pdb
  rDOCK(R)          3D
libRbt.so/2013.1/901 2013/11/27
 25 26  0  0  0  0  0  0  0  0999 V2000
   15.4905   29.9383   67.2660 C   0  0  0  0  0  0
   15.6743   30.9336   66.3624 F   0  0  0  0  0  0
   14.8736   30.4920   68.3435 F   0  0  0  0  0  0
   14.6288   29.0346   66.7280 F   0  0  0  0  0  0
   16.8256   29.2620   67.6459 C   0  0  0  0  0  0
   17.3503   29.2341   68.9642 C   0  0  0  0  0  0
   16.6818   29.8110   69.9464 O   0  0  0  0  0  0
   15.9035   28.8948   70.6984 C   0  0  0  0  0  0
   18.5843   28.5908   69.2045 C   0  0  0  0  0  0
   19.2908   27.9830   68.1605 C   0  0  0  0  0  0
   18.7743   28.0108   66.8500 C   0  0  0  0  0  0
   19.4989   27.3940   65.8033 C   0  0  0  0  0  0
   18.9829   27.4210   64.4973 C   0  0  0  0  0  0
   17.7657   28.0520   64.2308 C   0  0  0  0  0  0
   17.0517   28.6607   65.2706 C   0  0  0  0  0  0
   17.5463   28.6472   66.5879 C   0  0  0  0  0  0
   20.8206   26.6898   66.0010 C   0  0  0  0  0  0
   22.1478   27.5555   66.6530 S   0  0  0  0  0  0
   20.9341   25.4002   65.6794 N   0  0  0  0  0  0
   19.7615   24.6596   65.2274 C   0  0  0  0  0  0
   22.2069   24.6939   65.7853 C   0  0  0  0  0  0
   22.3631   24.0099   67.1543 C   0  0  0  0  0  0
   21.6054   23.1572   67.5361 O   0  0  0  0  0  0
   23.4031   24.4236   67.8867 O   0  0  0  0  0  0
   23.5668   24.0407   68.7261 H   0  0  0  0  0  0
  1  2  1  0  0  0
  1  3  1  0  0  0
  1  4  1  0  0  0
  1  5  1  0  0  0
  5  6  2  0  0  0
  5 16  1  0  0  0
  6  7  1  0  0  0
  6  9  1  0  0  0
  7  8  1  0  0  0
  9 10  2  0  0  0
 10 11  1  0  0  0
 11 12  2  0  0  0
 11 16  1  0  0  0
 12 13  1  0  0  0
 12 17  1  0  0  0
 13 14  2  0  0  0
 14 15  1  0  0  0
 15 16  2  0  0  0
 17 18  2  0  0  0
 17 19  1  0  0  0
 19 20  1  0  0  0
 19 21  1  0  0  0
 21 22  1  0  0  0
 22 23  2  0  0  0
 22 24  1  0  0  0
 24 25  1  0  0  0
M  END
>  <CHROM.0>
60.81920669,-98.64386334,139.18112842,-57.91047127,-62.08540662,-116.59456344
-60.35736690,-2.91608172,-165.78851294,-61.54190337,-69.90776849,-61.41326028
-60.50081437,-95.13165409

>  <CHROM.1>
119.30967857,97.85649117,-58.54763335,92.23322298,61.11452706,-179.06374765
18.74710282,27.66036604,67.05070467,2.91815041,-0.64220680,1.46627777

>  <FORMUL>
      TOL    C16 H14 F3 N1 O3 S1

>  <HET>
 TOL  A 320      24

>  <HETNAM>
     TOL TOLRESTAT

>  <Name>
TOL.pdb

>  <RI>
0

>  <Rbt.Current_Directory>
/home/malgorzata/Desktop/rDOCK_IFD/test/IFD

>  <Rbt.Executable>
rbdock ($Id: //depot/dev/client3/rdock/2013.1/src/exe/rbdock.cxx#4 $)

>  <Rbt.Library>
libRbt.so (2013.1, Build901 2013/11/27)

>  <Rbt.Parameter_File>
/home/malgorzata/Desktop/rDock_2013.1_src/data/scripts/hard_docking.prm

>  <Rbt.Receptor>
cavity.prm

>  <SCORE>
-20.692

>  <SCORE.INTER>
-10.4505

>  <SCORE.INTER.CONST>
1

>  <SCORE.INTER.POLAR>
-0.270826

>  <SCORE.INTER.REPUL>
9.326e-05

>  <SCORE.INTER.ROT>
5

>  <SCORE.INTER.VDW>
-19.9301

>  <SCORE.INTER.norm>
-0.435436

>  <SCORE.INTRA>
-5.35872

>  <SCORE.INTRA.DIHEDRAL>
1.62684

>  <SCORE.INTRA.DIHEDRAL.0>
16.9783

>  <SCORE.INTRA.POLAR>
0

>  <SCORE.INTRA.POLAR.0>
0

>  <SCORE.INTRA.REPUL>
0

>  <SCORE.INTRA.REPUL.0>
0

>  <SCORE.INTRA.VDW>
-6.17214

>  <SCORE.INTRA.VDW.0>
4.87734

>  <SCORE.INTRA.norm>
-0.22328

>  <SCORE.RESTR>
0

>  <SCORE.RESTR.CAVITY>
0

>  <SCORE.RESTR.norm>
0

>  <SCORE.SYSTEM>
-4.88277

>  <SCORE.SYSTEM.CONST>
0

>  <SCORE.SYSTEM.DIHEDRAL>
8.0854

>  <SCORE.SYSTEM.POLAR>
-1.29874

>  <SCORE.SYSTEM.VDW>
-4.50975

>  <SCORE.SYSTEM.norm>
-0.203449

>  <SCORE.heavy>
24

>  <SCORE.norm>
-0.862165

$$$$
TOL.pdb
  rDOCK(R)          3D
libRbt.so/2013.1/901 2013/11/27
 25 26  0  0  0  0  0  0  0  0999 V2000
   27.2497   25.3952   76.6497 C   0  0  0  0  0  0
   25.9881   25.3365   77.1453 F   0  0  0  0  0  0
   27.2728   24.6173   75.5351 F   0  0  0  0  0  0
   27.4879   26.6741   76.2541 F   0  0  0  0  0  0
   28.2925   24.9428   77.6948 C   0  0  0  0  0  0
   29.3089   23.9871   77.4344 C   0  0  0  0  0  0
   29.3953   23.4338   76.2383 O   0  0  0  0  0  0
   30.4914   23.9207   75.4817 C   0  0  0  0  0  0
   30.2120   23.6397   78.4630 C   0  0  0  0  0  0
   30.1153   24.2263   79.7299 C   0  0  0  0  0  0
   29.1061   25.1736   79.9928 C   0  0  0  0  0  0
   29.0182   25.7582   81.2780 C   0  0  0  0  0  0
   28.0126   26.7033   81.5391 C   0  0  0  0  0  0
   27.1046   27.0639   80.5409 C   0  0  0  0  0  0
   27.1962   26.4829   79.2699 C   0  0  0  0  0  0
   28.1947   25.5340   78.9822 C   0  0  0  0  0  0
   29.9567   25.4279   82.4146 C   0  0  0  0  0  0
   29.4114   24.4276   83.6945 S   0  0  0  0  0  0
   31.2018   25.9064   82.4007 N   0  0  0  0  0  0
   31.6739   26.6659   81.2483 C   0  0  0  0  0  0
   32.1234   25.6745   83.5082 C   0  0  0  0  0  0
   31.6491   26.3711   84.7952 C   0  0  0  0  0  0
   31.8690   25.9195   85.8881 O   0  0  0  0  0  0
   30.9823   27.5166   84.6149 O   0  0  0  0  0  0
   30.8487   27.8497   83.7494 H   0  0  0  0  0  0
  1  2  1  0  0  0
  1  3  1  0  0  0
  1  4  1  0  0  0
  1  5  1  0  0  0
  5  6  2  0  0  0
  5 16  1  0  0  0
  6  7  1  0  0  0
  6  9  1  0  0  0
  7  8  1  0  0  0
  9 10  2  0  0  0
 10 11  1  0  0  0
 11 12  2  0  0  0
 11 16  1  0  0  0
 12 13  1  0  0  0
 12 17  1  0  0  0
 13 14  2  0  0  0
 14 15  1  0  0  0
 15 16  2  0  0  0
 17 18  2  0  0  0
 17 19  1  0  0  0
 19 20  1  0  0  0
 19 21  1  0  0  0
 21 22  1  0  0  0
 22 23  2  0  0  0
 22 24  1  0  0  0
 24 25  1  0  0  0
M  END
>  <CHROM.0>
61.01494042,92.44494968,146.66537008,-57.12787046,64.12565102,12.66021326
-60.35736690,107.15454123,-155.99608184,-61.54190337,62.19903378,-61.41326028
-60.50081437,-143.55908806

>  <CHROM.1>
130.23760104,106.49731976,-104.73883589,-65.58136249,148.18797921,-1.23192925
29.26897763,25.41422525,80.10767278,1.99299363,0.46788354,-1.91102056

>  <FORMUL>
      TOL    C16 H14 F3 N1 O3 S1

>  <HET>
 TOL  A 320      24

>  <HETNAM>
     TOL TOLRESTAT

>  <Name>
TOL.pdb

>  <RI>
0

>  <Rbt.Current_Directory>
/home/malgorzata/Desktop/rDOCK_IFD/test/IFD

>  <Rbt.Executable>
rbdock ($Id: //depot/dev/client3/rdock/2013.1/src/exe/rbdock.cxx#4 $)

>  <Rbt.Library>
libRbt.so (2013.1, Build901 2013/11/27)

>  <Rbt.Parameter_File>
/home/malgorzata/Desktop/rDock_2013.1_src/data/scripts/hard_docking.prm

>  <Rbt.Receptor>
cavity.prm

>  <SCORE>
-23.3011

>  <SCORE.INTER>
-9.08688

>  <SCORE.INTER.CONST>
1

>  <SCORE.INTER.POLAR>
-0.699696

>  <SCORE.INTER.REPUL>
0

>  <SCORE.INTER.ROT>
5

>  <SCORE.INTER.VDW>
-17.1079

>  <SCORE.INTER.norm>
-0.37862

>  <SCORE.INTRA>
-5.00209

>  <SCORE.INTRA.DIHEDRAL>
3.81923

>  <SCORE.INTRA.DIHEDRAL.0>
16.9783

>  <SCORE.INTRA.POLAR>
0

>  <SCORE.INTRA.POLAR.0>
0

>  <SCORE.INTRA.REPUL>
0

>  <SCORE.INTRA.REPUL.0>
0

>  <SCORE.INTRA.VDW>
-6.91171

>  <SCORE.INTRA.VDW.0>
4.87734

>  <SCORE.INTRA.norm>
-0.20842

>  <SCORE.RESTR>
0.901919

>  <SCORE.RESTR.CAVITY>
0.901919

>  <SCORE.RESTR.norm>
0.0375799

>  <SCORE.SYSTEM>
-10.114

>  <SCORE.SYSTEM.CONST>
0

>  <SCORE.SYSTEM.DIHEDRAL>
3.50018

>  <SCORE.SYSTEM.POLAR>
-2.53457

>  <SCORE.SYSTEM.REPUL>
0.0694257

>  <SCORE.SYSTEM.VDW>
-3.5937

>  <SCORE.SYSTEM.norm>
-0.421418

>  <SCORE.heavy>
24

>  <SCORE.norm>
-0.970878

$$$$
TOL.pdb
  rDOCK(R)          3D
libRbt.so/2013.1/901 2013/11/27
 25 26  0  0  0  0  0  0  0  0999 V2000
   27.7277   18.1713   74.0334 C   0  0  0  0  0  0
   28.5595   17.7992   73.0282 F   0  0  0  0  0  0
   26.7752   18.9698   73.4827 F   0  0  0  0  0  0
   27.1015   17.0568   74.4966 F   0  0  0  0  0  0
   28.4932   18.8813   75.1710 C   0  0  0  0  0  0
   28.4626   18.4613   76.5263 C   0  0  0  0  0  0
   27.7472   17.4048   76.8674 O   0  0  0  0  0  0
   28.5372   16.2457   77.0752 C   0  0  0  0  0  0
   29.1971   19.1842   77.4917 C   0  0  0  0  0  0
   29.9518   20.3048   77.1265 C   0  0  0  0  0  0
   29.9827   20.7263   75.7825 C   0  0  0  0  0  0
   30.7481   21.8613   75.4266 C   0  0  0  0  0  0
   30.7795   22.2803   74.0864 C   0  0  0  0  0  0
   30.0607   21.5851   73.1112 C   0  0  0  0  0  0
   29.3049   20.4615   73.4684 C   0  0  0  0  0  0
   29.2572   20.0206   74.8040 C   0  0  0  0  0  0
   31.5549   22.6711   76.4142 C   0  0  0  0  0  0
   33.2111   22.3023   76.6531 S   0  0  0  0  0  0
   30.9724   23.6716   77.0768 N   0  0  0  0  0  0
   29.5914   24.0332   76.7767 C   0  0  0  0  0  0
   31.6890   24.4372   78.0918 C   0  0  0  0  0  0
   32.5882   25.5134   77.4597 C   0  0  0  0  0  0
   33.0724   25.3843   76.3661 O   0  0  0  0  0  0
   32.7882   26.6049   78.2067 O   0  0  0  0  0  0
   32.3787   26.6795   79.0462 H   0  0  0  0  0  0
  1  2  1  0  0  0
  1  3  1  0  0  0
  1  4  1  0  0  0
  1  5  1  0  0  0
  5  6  2  0  0  0
  5 16  1  0  0  0
  6  7  1  0  0  0
  6  9  1  0  0  0
  7  8  1  0  0  0
  9 10  2  0  0  0
 10 11  1  0  0  0
 11 12  2  0  0  0
 11 16  1  0  0  0
 12 13  1  0  0  0
 12 17  1  0  0  0
 13 14  2  0  0  0
 14 15  1  0  0  0
 15 16  2  0  0  0
 17 18  2  0  0  0
 17 19  1  0  0  0
 19 20  1  0  0  0
 19 21  1  0  0  0
 21 22  1  0  0  0
 22 23  2  0  0  0
 22 24  1  0  0  0
 24 25  1  0  0  0
M  END
>  <CHROM.0>
62.49111330,-97.82330192,1.32585224,66.52929506,-63.64186564,12.79561350
-60.35736690,-13.52468291,-156.59997851,-61.54190337,61.61760477,-61.41326028
-60.50081437,-88.80603048

>  <CHROM.1>
-124.24535302,102.76581609,93.35581720,80.70904549,-29.01898086,-1.06123267
30.01431844,20.99856929,75.79981997,3.06519773,1.01327075,1.98919753

>  <FORMUL>
      TOL    C16 H14 F3 N1 O3 S1

>  <HET>
 TOL  A 320      24

>  <HETNAM>
     TOL TOLRESTAT

>  <Name>
TOL.pdb

>  <RI>
0

>  <Rbt.Current_Directory>
/home/malgorzata/Desktop/rDOCK_IFD/test/IFD

>  <Rbt.Executable>
rbdock ($Id: //depot/dev/client3/rdock/2013.1/src/exe/rbdock.cxx#4 $)

>  <Rbt.Library>
libRbt.so (2013.1, Build901 2013/11/27)

>  <Rbt.Parameter_File>
/home/malgorzata/Desktop/rDock_2013.1_src/data/scripts/hard_docking.prm

>  <Rbt.Receptor>
cavity.prm

>  <SCORE>
-12.2515

>  <SCORE.INTER>
3.1382

>  <SCORE.INTER.CONST>
1

>  <SCORE.INTER.POLAR>
0

>  <SCORE.INTER.REPUL>
0

>  <SCORE.INTER.ROT>
5

>  <SCORE.INTER.VDW>
-7.2618

>  <SCORE.INTER.norm>
0.130758

>  <SCORE.INTRA>
-4.67281

>  <SCORE.INTRA.DIHEDRAL>
4.8792

>  <SCORE.INTRA.DIHEDRAL.0>
16.9783

>  <SCORE.INTRA.POLAR>
0

>  <SCORE.INTRA.POLAR.0>
0

>  <SCORE.INTRA.REPUL>
0

>  <SCORE.INTRA.REPUL.0>
0

>  <SCORE.INTRA.VDW>
-7.11241

>  <SCORE.INTRA.VDW.0>
4.87734

>  <SCORE.INTRA.norm>
-0.194701

>  <SCORE.RESTR>
0.376854

>  <SCORE.RESTR.CAVITY>
0.376854

>  <SCORE.RESTR.norm>
0.0157023

>  <SCORE.SYSTEM>
-11.0937

>  <SCORE.SYSTEM.CONST>
0

>  <SCORE.SYSTEM.DIHEDRAL>
2.23365

>  <SCORE.SYSTEM.POLAR>
-2.30889

>  <SCORE.SYSTEM.VDW>
-4.3603

>  <SCORE.SYSTEM.norm>
-0.462238

>  <SCORE.heavy>
24

>  <SCORE.norm>
-0.510478

$$$$
TOL.pdb
  rDOCK(R)          3D
libRbt.so/2013.1/901 2013/11/27
 25 26  0  0  0  0  0  0  0  0999 V2000
   30.3255   23.6643   75.3893 C   0  0  0  0  0  0
   29.1343   23.2065   74.9287 F   0  0  0  0  0  0
   31.1547   22.5905   75.4759 F   0  0  0  0  0  0
   30.8458   24.5013   74.4526 F   0  0  0  0  0  0
   30.1705   24.3884   76.7442 C   0  0  0  0  0  0
   28.9522   24.4571   77.4687 C   0  0  0  0  0  0
   27.8691   23.8779   76.9831 O   0  0  0  0  0  0
   26.7917   24.7822   76.8037 C   0  0  0  0  0  0
   28.9168   25.1488   78.6994 C   0  0  0  0  0  0
   30.0661   25.7636   79.2091 C   0  0  0  0  0  0
   31.2768   25.6997   78.4915 C   0  0  0  0  0  0
   32.4310   26.3265   79.0170 C   0  0  0  0  0  0
   33.6380   26.2614   78.3017 C   0  0  0  0  0  0
   33.7010   25.5856   77.0809 C   0  0  0  0  0  0
   32.5558   24.9661   76.5652 C   0  0  0  0  0  0
   31.3343   25.0160   77.2624 C   0  0  0  0  0  0
   32.4535   27.0771   80.3277 C   0  0  0  0  0  0
   32.1678   28.7666   80.3366 S   0  0  0  0  0  0
   32.6809   26.4137   81.4624 N   0  0  0  0  0  0
   32.8145   24.9614   81.4391 C   0  0  0  0  0  0
   32.7826   27.1030   82.7448 C   0  0  0  0  0  0
   31.3953   27.4108   83.3340 C   0  0  0  0  0  0
   30.6205   28.1573   82.7961 O   0  0  0  0  0  0
   31.1078   26.7857   84.4812 O   0  0  0  0  0  0
   30.2778   26.9223   84.8939 H   0  0  0  0  0  0
  1  2  1  0  0  0
  1  3  1  0  0  0
  1  4  1  0  0  0
  1  5  1  0  0  0
  5  6  2  0  0  0
  5 16  1  0  0  0
  6  7  1  0  0  0
  6  9  1  0  0  0
  7  8  1  0  0  0
  9 10  2  0  0  0
 10 11  1  0  0  0
 11 12  2  0  0  0
 11 16  1  0  0  0
 12 13  1  0  0  0
 12 17  1  0  0  0
 13 14  2  0  0  0
 14 15  1  0  0  0
 15 16  2  0  0  0
 17 18  2  0  0  0
 17 19  1  0  0  0
 19 20  1  0  0  0
 19 21  1  0  0  0
 21 22  1  0  0  0
 22 23  2  0  0  0
 22 24  1  0  0  0
 24 25  1  0  0  0
M  END
>  <CHROM.0>
63.08482258,-98.21721213,3.04528855,66.41247016,-179.49906207,12.93795230
-60.35736690,-13.74953184,-156.20678228,-61.54190337,-170.47466350,-61.41326028
-60.50081437,-41.48575471

>  <CHROM.1>
5.27732574,-122.12992168,-92.36523133,81.24227547,-64.26740729,-179.61825572
31.03903632,25.62670821,78.74912374,-1.85605243,0.22543073,1.14517336

>  <FORMUL>
      TOL    C16 H14 F3 N1 O3 S1

>  <HET>
 TOL  A 320      24

>  <HETNAM>
     TOL TOLRESTAT

>  <Name>
TOL.pdb

>  <RI>
0

>  <Rbt.Current_Directory>
/home/malgorzata/Desktop/rDOCK_IFD/test/IFD

>  <Rbt.Executable>
rbdock ($Id: //depot/dev/client3/rdock/2013.1/src/exe/rbdock.cxx#4 $)

>  <Rbt.Library>
libRbt.so (2013.1, Build901 2013/11/27)

>  <Rbt.Parameter_File>
/home/malgorzata/Desktop/rDock_2013.1_src/data/scripts/hard_docking.prm

>  <Rbt.Receptor>
cavity.prm

>  <SCORE>
-20.3897

>  <SCORE.INTER>
-5.14925

>  <SCORE.INTER.CONST>
1

>  <SCORE.INTER.POLAR>
-0.790569

>  <SCORE.INTER.REPUL>
0.00904929

>  <SCORE.INTER.ROT>
5

>  <SCORE.INTER.VDW>
-12.9066

>  <SCORE.INTER.norm>
-0.214552

>  <SCORE.INTRA>
-4.56396

>  <SCORE.INTRA.DIHEDRAL>
3.73214

>  <SCORE.INTRA.DIHEDRAL.0>
16.9783

>  <SCORE.INTRA.POLAR>
0

>  <SCORE.INTRA.POLAR.0>
0

>  <SCORE.INTRA.REPUL>
0

>  <SCORE.INTRA.REPUL.0>
0

>  <SCORE.INTRA.VDW>
-6.43003

>  <SCORE.INTRA.VDW.0>
4.87734

>  <SCORE.INTRA.norm>
-0.190165

>  <SCORE.RESTR>
0.00938177

>  <SCORE.RESTR.CAVITY>
0.00938177

>  <SCORE.RESTR.norm>
0.000390907

>  <SCORE.SYSTEM>
-10.6859

>  <SCORE.SYSTEM.CONST>
0

>  <SCORE.SYSTEM.DIHEDRAL>
2.62991

>  <SCORE.SYSTEM.POLAR>
-2.30829

>  <SCORE.SYSTEM.VDW>
-4.15263

>  <SCORE.SYSTEM.norm>
-0.445244

>  <SCORE.heavy>
24

>  <SCORE.norm>
-0.84957

$$$$
TOL.pdb
  rDOCK(R)          3D
libRbt.so/2013.1/901 2013/11/27
 25 26  0  0  0  0  0  0  0  0999 V2000
   19.9101   28.8643   67.3773 C   0  0  0  0  0  0
   19.0576   28.5044   68.3694 F   0  0  0  0  0  0
   20.2431   30.1643   67.5949 F   0  0  0  0  0  0
   21.0461   28.1291   67.5105 F   0  0  0  0  0  0
   19.2815   28.6519   65.9830 C   0  0  0  0  0  0
   19.0528   29.6980   65.0516 C   0  0  0  0  0  0
   19.3860   30.9370   65.3650 O   0  0  0  0  0  0
   20.6274   31.3339   64.8062 C   0  0  0  0  0  0
   18.4675   29.3966   63.8023 C   0  0  0  0  0  0
   18.1133   28.0828   63.4752 C   0  0  0  0  0  0
   18.3366   27.0420   64.3982 C   0  0  0  0  0  0
   17.9728   25.7185   64.0560 C   0  0  0  0  0  0
   18.1968   24.6813   64.9760 C   0  0  0  0  0  0
   18.7722   24.9512   66.2198 C   0  0  0  0  0  0
   19.1313   26.2631   66.5537 C   0  0  0  0  0  0
   18.9181   27.3202   65.6496 C   0  0  0  0  0  0
   17.3468   25.3366   62.7353 C   0  0  0  0  0  0
   15.6511   25.1090   62.6407 S   0  0  0  0  0  0
   18.1190   25.1957   61.6569 N   0  0  0  0  0  0
   19.5434   25.4993   61.7401 C   0  0  0  0  0  0
   17.5726   24.7597   60.3757 C   0  0  0  0  0  0
   17.0610   25.9484   59.5441 C   0  0  0  0  0  0
   15.9271   26.0142   59.1480 O   0  0  0  0  0  0
   17.9617   26.9065   59.2985 O   0  0  0  0  0  0
   18.8401   26.8151   59.6117 H   0  0  0  0  0  0
  1  2  1  0  0  0
  1  3  1  0  0  0
  1  4  1  0  0  0
  1  5  1  0  0  0
  5  6  2  0  0  0
  5 16  1  0  0  0
  6  7  1  0  0  0
  6  9  1  0  0  0
  7  8  1  0  0  0
  9 10  2  0  0  0
 10 11  1  0  0  0
 11 12  2  0  0  0
 11 16  1  0  0  0
 12 13  1  0  0  0
 12 17  1  0  0  0
 13 14  2  0  0  0
 14 15  1  0  0  0
 15 16  2  0  0  0
 17 18  2  0  0  0
 17 19  1  0  0  0
 19 20  1  0  0  0
 19 21  1  0  0  0
 21 22  1  0  0  0
 22 23  2  0  0  0
 22 24  1  0  0  0
 24 25  1  0  0  0
M  END
>  <CHROM.0>
58.70491373,-97.32808972,138.73139399,67.58438018,-179.44733704,12.13827453
-60.35736690,115.13085473,-155.56399126,-61.54190337,63.09631219,-61.41326028
-60.50081437,-98.28415396

>  <CHROM.1>
118.56234127,99.40939356,-99.47372386,87.80753170,-123.07722900,1.31045365
18.48803058,27.25406663,64.09091187,0.38942698,1.15816104,2.17650266

>  <FORMUL>
      TOL    C16 H14 F3 N1 O3 S1

>  <HET>
 TOL  A 320      24

>  <HETNAM>
     TOL TOLRESTAT

>  <Name>
TOL.pdb

>  <RI>
0

>  <Rbt.Current_Directory>
/home/malgorzata/Desktop/rDOCK_IFD/test/IFD

>  <Rbt.Executable>
rbdock ($Id: //depot/dev/client3/rdock/2013.1/src/exe/rbdock.cxx#4 $)

>  <Rbt.Library>
libRbt.so (2013.1, Build901 2013/11/27)

>  <Rbt.Parameter_File>
/home/malgorzata/Desktop/rDock_2013.1_src/data/scripts/hard_docking.prm

>  <Rbt.Receptor>
cavity.prm

>  <SCORE>
-20.8114

>  <SCORE.INTER>
-5.19675

>  <SCORE.INTER.CONST>
1

>  <SCORE.INTER.POLAR>
0

>  <SCORE.INTER.REPUL>
0

>  <SCORE.INTER.ROT>
5

>  <SCORE.INTER.VDW>
-15.5968

>  <SCORE.INTER.norm>
-0.216531

>  <SCORE.INTRA>
-4.67718

>  <SCORE.INTRA.DIHEDRAL>
4.64684

>  <SCORE.INTRA.DIHEDRAL.0>
16.9783

>  <SCORE.INTRA.POLAR>
0

>  <SCORE.INTRA.POLAR.0>
0

>  <SCORE.INTRA.REPUL>
0

>  <SCORE.INTRA.REPUL.0>
0

>  <SCORE.INTRA.VDW>
-7.0006

>  <SCORE.INTRA.VDW.0>
4.87734

>  <SCORE.INTRA.norm>
-0.194882

>  <SCORE.RESTR>
1.21036

>  <SCORE.RESTR.CAVITY>
1.21036

>  <SCORE.RESTR.norm>
0.0504317

>  <SCORE.SYSTEM>
-12.1478

>  <SCORE.SYSTEM.CONST>
0

>  <SCORE.SYSTEM.DIHEDRAL>
4.3282

>  <SCORE.SYSTEM.POLAR>
-2.73155

>  <SCORE.SYSTEM.VDW>
-5.02466

>  <SCORE.SYSTEM.norm>
-0.506159

>  <SCORE.heavy>
24

>  <SCORE.norm>
-0.867141

$$$$
TOL.pdb
  rDOCK(R)          3D
libRbt.so/2013.1/901 2013/11/27
 25 26  0  0  0  0  0  0  0  0999 V2000
   18.8771   26.7188   61.1995 C   0  0  0  0  0  0
   19.5561   27.7905   60.7185 F   0  0  0  0  0  0
   17.6758   26.6944   60.5635 F   0  0  0  0  0  0
   19.5499   25.5951   60.8341 F   0  0  0  0  0  0
   18.7200   26.7876   62.7340 C   0  0  0  0  0  0
   19.0662   25.7278   63.6121 C   0  0  0  0  0  0
   19.5541   24.6036   63.1197 O   0  0  0  0  0  0
   18.5833   23.5742   63.0249 C   0  0  0  0  0  0
   18.8794   25.8919   65.0022 C   0  0  0  0  0  0
   18.3596   27.0837   65.5197 C   0  0  0  0  0  0
   18.0124   28.1371   64.6509 C   0  0  0  0  0  0
   17.4866   29.3362   65.1864 C   0  0  0  0  0  0
   17.1419   30.3864   64.3199 C   0  0  0  0  0  0
   17.3141   30.2505   62.9405 C   0  0  0  0  0  0
   17.8358   29.0617   62.4151 C   0  0  0  0  0  0
   18.1897   27.9947   63.2617 C   0  0  0  0  0  0
   17.2677   29.5692   66.6628 C   0  0  0  0  0  0
   18.6162   29.6063   67.7194 S   0  0  0  0  0  0
   16.0300   29.7576   67.1232 N   0  0  0  0  0  0
   14.9117   29.8279   66.1893 C   0  0  0  0  0  0
   15.7593   29.9162   68.5486 C   0  0  0  0  0  0
   15.5723   28.5570   69.2443 C   0  0  0  0  0  0
   14.8557   28.4183   70.2004 O   0  0  0  0  0  0
   16.2555   27.5395   68.7082 O   0  0  0  0  0  0
   16.2205   26.6912   69.1047 H   0  0  0  0  0  0
  1  2  1  0  0  0
  1  3  1  0  0  0
  1  4  1  0  0  0
  1  5  1  0  0  0
  5  6  2  0  0  0
  5 16  1  0  0  0
  6  7  1  0  0  0
  6  9  1  0  0  0
  7  8  1  0  0  0
  9 10  2  0  0  0
 10 11  1  0  0  0
 11 12  2  0  0  0
 11 16  1  0  0  0
 12 13  1  0  0  0
 12 17  1  0  0  0
 13 14  2  0  0  0
 14 15  1  0  0  0
 15 16  2  0  0  0
 17 18  2  0  0  0
 17 19  1  0  0  0
 19 20  1  0  0  0
 19 21  1  0  0  0
 21 22  1  0  0  0
 22 23  2  0  0  0
 22 24  1  0  0  0
 24 25  1  0  0  0
M  END
>  <CHROM.0>
62.47902814,95.59309560,139.05786813,-54.00623953,-64.74097099,13.38399082
-60.35736690,108.60285438,-154.89917068,-61.54190337,-173.72730046,-61.41326028
-60.50081437,-111.34033247

>  <CHROM.1>
-128.63251143,-100.12791735,64.35102736,-86.45208909,-149.53748542,177.14278012
17.73402413,27.87091074,64.78387399,0.38099939,1.18259724,-0.82292708

>  <FORMUL>
      TOL    C16 H14 F3 N1 O3 S1

>  <HET>
 TOL  A 320      24

>  <HETNAM>
     TOL TOLRESTAT

>  <Name>
TOL.pdb

>  <RI>
0

>  <Rbt.Current_Directory>
/home/malgorzata/Desktop/rDOCK_IFD/test/IFD

>  <Rbt.Executable>
rbdock ($Id: //depot/dev/client3/rdock/2013.1/src/exe/rbdock.cxx#4 $)

>  <Rbt.Library>
libRbt.so (2013.1, Build901 2013/11/27)

>  <Rbt.Parameter_File>
/home/malgorzata/Desktop/rDock_2013.1_src/data/scripts/hard_docking.prm

>  <Rbt.Receptor>
cavity.prm

>  <SCORE>
-25.1129

>  <SCORE.INTER>
-11.2028

>  <SCORE.INTER.CONST>
1

>  <SCORE.INTER.POLAR>
-0.894149

>  <SCORE.INTER.REPUL>
0

>  <SCORE.INTER.ROT>
5

>  <SCORE.INTER.VDW>
-18.5627

>  <SCORE.INTER.norm>
-0.466782

>  <SCORE.INTRA>
-5.11462

>  <SCORE.INTRA.DIHEDRAL>
2.49429

>  <SCORE.INTRA.DIHEDRAL.0>
16.9783

>  <SCORE.INTRA.POLAR>
0

>  <SCORE.INTRA.POLAR.0>
0

>  <SCORE.INTRA.REPUL>
0

>  <SCORE.INTRA.REPUL.0>
0

>  <SCORE.INTRA.VDW>
-6.36177

>  <SCORE.INTRA.VDW.0>
4.87734

>  <SCORE.INTRA.norm>
-0.213109

>  <SCORE.RESTR>
0.939352

>  <SCORE.RESTR.CAVITY>
0.939352

>  <SCORE.RESTR.norm>
0.0391397

>  <SCORE.SYSTEM>
-9.73481

>  <SCORE.SYSTEM.CONST>
0

>  <SCORE.SYSTEM.DIHEDRAL>
4.48752

>  <SCORE.SYSTEM.POLAR>
-2.62944

>  <SCORE.SYSTEM.REPUL>
0.0694257

>  <SCORE.SYSTEM.VDW>
-3.38561

>  <SCORE.SYSTEM.norm>
-0.405617

>  <SCORE.heavy>
24

>  <SCORE.norm>
-1.04637

$$$$
TOL.pdb
  rDOCK(R)          3D
libRbt.so/2013.1/901 2013/11/27
 25 26  0  0  0  0  0  0  0  0999 V2000
   18.2106   27.2763   61.8184 C   0  0  0  0  0  0
   18.6768   26.1378   61.2461 F   0  0  0  0  0  0
   18.9916   28.2935   61.3675 F   0  0  0  0  0  0
   16.9522   27.4970   61.3530 F   0  0  0  0  0  0
   18.2149   27.1806   63.3595 C   0  0  0  0  0  0
   18.6075   26.0216   64.0782 C   0  0  0  0  0  0
   18.9976   24.9450   63.4201 O   0  0  0  0  0  0
   18.0126   23.9251   63.3950 C   0  0  0  0  0  0
   18.5712   26.0373   65.4898 C   0  0  0  0  0  0
   18.1546   27.1792   66.1833 C   0  0  0  0  0  0
   17.7617   28.3309   65.4732 C   0  0  0  0  0  0
   17.3413   29.4782   66.1860 C   0  0  0  0  0  0
   16.9509   30.6264   65.4775 C   0  0  0  0  0  0
   16.9750   30.6379   64.0810 C   0  0  0  0  0  0
   17.3927   29.4998   63.3799 C   0  0  0  0  0  0
   17.7895   28.3368   64.0658 C   0  0  0  0  0  0
   17.2846   29.5538   67.6936 C   0  0  0  0  0  0
   15.7641   29.6669   68.4755 S   0  0  0  0  0  0
   18.4170   29.5169   68.3977 N   0  0  0  0  0  0
   19.6895   29.3126   67.7144 C   0  0  0  0  0  0
   18.4201   29.6576   69.8504 C   0  0  0  0  0  0
   17.9678   28.3622   70.5459 C   0  0  0  0  0  0
   16.8748   28.2433   71.0338 O   0  0  0  0  0  0
   18.8709   27.3755   70.5639 O   0  0  0  0  0  0
   18.6700   26.5641   70.9874 H   0  0  0  0  0  0
  1  2  1  0  0  0
  1  3  1  0  0  0
  1  4  1  0  0  0
  1  5  1  0  0  0
  5  6  2  0  0  0
  5 16  1  0  0  0
  6  7  1  0  0  0
  6  9  1  0  0  0
  7  8  1  0  0  0
  9 10  2  0  0  0
 10 11  1  0  0  0
 11 12  2  0  0  0
 11 16  1  0  0  0
 12 13  1  0  0  0
 12 17  1  0  0  0
 13 14  2  0  0  0
 14 15  1  0  0  0
 15 16  2  0  0  0
 17 18  2  0  0  0
 17 19  1  0  0  0
 19 20  1  0  0  0
 19 21  1  0  0  0
 21 22  1  0  0  0
 22 23  2  0  0  0
 22 24  1  0  0  0
 24 25  1  0  0  0
M  END
>  <CHROM.0>
57.49823542,86.02306836,134.61724865,68.61826171,64.10500316,13.43749250
-60.35736690,117.46152180,-154.94238721,-61.54190337,-173.48880160,-61.41326028
-60.50081437,-91.51215166

>  <CHROM.1>
-2.41478890,-103.97216635,-112.25064510,76.79721104,-104.41412179,178.67565108
17.87313877,28.05298927,65.65500370,1.31898618,1.21521718,-1.62269932

>  <FORMUL>
      TOL    C16 H14 F3 N1 O3 S1

>  <HET>
 TOL  A 320      24

>  <HETNAM>
     TOL TOLRESTAT

>  <Name>
TOL.pdb

>  <RI>
0

>  <Rbt.Current_Directory>
/home/malgorzata/Desktop/rDOCK_IFD/test/IFD

>  <Rbt.Executable>
rbdock ($Id: //depot/dev/client3/rdock/2013.1/src/exe/rbdock.cxx#4 $)

>  <Rbt.Library>
libRbt.so (2013.1, Build901 2013/11/27)

>  <Rbt.Parameter_File>
/home/malgorzata/Desktop/rDock_2013.1_src/data/scripts/hard_docking.prm

>  <Rbt.Receptor>
cavity.prm

>  <SCORE>
-25.2145

>  <SCORE.INTER>
-9.43206

>  <SCORE.INTER.CONST>
1

>  <SCORE.INTER.POLAR>
0

>  <SCORE.INTER.REPUL>
0

>  <SCORE.INTER.ROT>
5

>  <SCORE.INTER.VDW>
-19.8321

>  <SCORE.INTER.norm>
-0.393003

>  <SCORE.INTRA>
-5.10484

>  <SCORE.INTRA.DIHEDRAL>
2.96321

>  <SCORE.INTRA.DIHEDRAL.0>
16.9783

>  <SCORE.INTRA.POLAR>
0

>  <SCORE.INTRA.POLAR.0>
0

>  <SCORE.INTRA.REPUL>
0

>  <SCORE.INTRA.REPUL.0>
0

>  <SCORE.INTRA.VDW>
-6.58645

>  <SCORE.INTRA.VDW.0>
4.87734

>  <SCORE.INTRA.norm>
-0.212702

>  <SCORE.RESTR>
0.0706381

>  <SCORE.RESTR.CAVITY>
0.0706381

>  <SCORE.RESTR.norm>
0.00294325

>  <SCORE.SYSTEM>
-10.7482

>  <SCORE.SYSTEM.CONST>
0

>  <SCORE.SYSTEM.DIHEDRAL>
5.03066

>  <SCORE.SYSTEM.POLAR>
-2.78664

>  <SCORE.SYSTEM.REPUL>
0.0694257

>  <SCORE.SYSTEM.VDW>
-4.13607

>  <SCORE.SYSTEM.norm>
-0.447841

>  <SCORE.heavy>
24

>  <SCORE.norm>
-1.0506

$$$$
TOL.pdb
  rDOCK(R)          3D
libRbt.so/2013.1/901 2013/11/27
 25 26  0  0  0  0  0  0  0  0999 V2000
   31.1485   28.3173   80.7288 C   0  0  0  0  0  0
   32.1144   27.8491   81.5586 F   0  0  0  0  0  0
   30.2477   28.9775   81.5040 F   0  0  0  0  0  0
   31.7141   29.2334   79.8984 F   0  0  0  0  0  0
   30.4925   27.1773   79.9199 C   0  0  0  0  0  0
   29.0968   26.9208   79.9048 C   0  0  0  0  0  0
   28.2840   27.6837   80.6131 O   0  0  0  0  0  0
   27.4951   26.9468   81.5326 C   0  0  0  0  0  0
   28.5986   25.8484   79.1328 C   0  0  0  0  0  0
   29.4635   25.0407   78.3858 C   0  0  0  0  0  0
   30.8499   25.2906   78.4003 C   0  0  0  0  0  0
   31.7137   24.4660   77.6421 C   0  0  0  0  0  0
   33.0956   24.7165   77.6560 C   0  0  0  0  0  0
   33.6158   25.7692   78.4124 C   0  0  0  0  0  0
   32.7566   26.5833   79.1609 C   0  0  0  0  0  0
   31.3681   26.3540   79.1635 C   0  0  0  0  0  0
   31.2380   23.3080   76.7968 C   0  0  0  0  0  0
   30.4430   21.9879   77.5461 S   0  0  0  0  0  0
   31.4295   23.3339   75.4769 N   0  0  0  0  0  0
   32.0121   24.5161   74.8517 C   0  0  0  0  0  0
   31.0522   22.2095   74.6264 C   0  0  0  0  0  0
   29.5331   22.1640   74.3884 C   0  0  0  0  0  0
   28.8144   23.0930   74.6482 O   0  0  0  0  0  0
   29.0683   21.0236   73.8660 O   0  0  0  0  0  0
   28.1629   20.9481   73.6370 H   0  0  0  0  0  0
  1  2  1  0  0  0
  1  3  1  0  0  0
  1  4  1  0  0  0
  1  5  1  0  0  0
  5  6  2  0  0  0
  5 16  1  0  0  0
  6  7  1  0  0  0
  6  9  1  0  0  0
  7  8  1  0  0  0
  9 10  2  0  0  0
 10 11  1  0  0  0
 11 12  2  0  0  0
 11 16  1  0  0  0
 12 13  1  0  0  0
 12 17  1  0  0  0
 13 14  2  0  0  0
 14 15  1  0  0  0
 15 16  2  0  0  0
 17 18  2  0  0  0
 17 19  1  0  0  0
 19 20  1  0  0  0
 19 21  1  0  0  0
 21 22  1  0  0  0
 22 23  2  0  0  0
 22 24  1  0  0  0
 24 25  1  0  0  0
M  END
>  <CHROM.0>
61.50286844,93.22267723,148.53673198,68.10184531,63.17500403,11.03071771
-60.35736690,-8.31251863,-155.54087301,-61.54190337,-69.05847067,-61.41326028
-60.50081437,-115.09253353

>  <CHROM.1>
124.67664418,-123.45689389,-61.87961978,76.67671317,13.97813717,-175.58490676
30.61344642,25.29190951,78.18912647,-1.54405758,-0.19223822,-2.35654940

>  <FORMUL>
      TOL    C16 H14 F3 N1 O3 S1

>  <HET>
 TOL  A 320      24

>  <HETNAM>
     TOL TOLRESTAT

>  <Name>
TOL.pdb

>  <RI>
0

>  <Rbt.Current_Directory>
/home/malgorzata/Desktop/rDOCK_IFD/test/IFD

>  <Rbt.Executable>
rbdock ($Id: //depot/dev/client3/rdock/2013.1/src/exe/rbdock.cxx#4 $)

>  <Rbt.Library>
libRbt.so (2013.1, Build901 2013/11/27)

>  <Rbt.Parameter_File>
/home/malgorzata/Desktop/rDock_2013.1_src/data/scripts/hard_docking.prm

>  <Rbt.Receptor>
cavity.prm

>  <SCORE>
-22.8903

>  <SCORE.INTER>
-7.28434

>  <SCORE.INTER.CONST>
1

>  <SCORE.INTER.POLAR>
-1.25699

>  <SCORE.INTER.REPUL>
0

>  <SCORE.INTER.ROT>
5

>  <SCORE.INTER.VDW>
-13.4106

>  <SCORE.INTER.norm>
-0.303514

>  <SCORE.INTRA>
-4.9032

>  <SCORE.INTRA.DIHEDRAL>
0.990415

>  <SCORE.INTRA.DIHEDRAL.0>
16.9783

>  <SCORE.INTRA.POLAR>
0

>  <SCORE.INTRA.POLAR.0>
0

>  <SCORE.INTRA.REPUL>
0

>  <SCORE.INTRA.REPUL.0>
0

>  <SCORE.INTRA.VDW>
-5.39841

>  <SCORE.INTRA.VDW.0>
4.87734

>  <SCORE.INTRA.norm>
-0.2043

>  <SCORE.RESTR>
0

>  <SCORE.RESTR.CAVITY>
0

>  <SCORE.RESTR.norm>
0

>  <SCORE.SYSTEM>
-10.7027

>  <SCORE.SYSTEM.CONST>
0

>  <SCORE.SYSTEM.DIHEDRAL>
3.923

>  <SCORE.SYSTEM.POLAR>
-2.60879

>  <SCORE.SYSTEM.REPUL>
0.0694257

>  <SCORE.SYSTEM.VDW>
-4.14144

>  <SCORE.SYSTEM.norm>
-0.445946

>  <SCORE.heavy>
24

>  <SCORE.norm>
-0.95376

$$$$
TOL.pdb
  rDOCK(R)          3D
libRbt.so/2013.1/901 2013/11/27
 25 26  0  0  0  0  0  0  0  0999 V2000
   21.9749   24.5332   68.5267 C   0  0  0  0  0  0
   22.0205   23.1890   68.3482 F   0  0  0  0  0  0
   22.4386   24.7811   69.7804 F   0  0  0  0  0  0
   22.8472   25.1040   67.6537 F   0  0  0  0  0  0
   20.5489   25.0865   68.3156 C   0  0  0  0  0  0
   19.4831   24.3325   67.7590 C   0  0  0  0  0  0
   19.6902   23.0814   67.3900 O   0  0  0  0  0  0
   20.0187   22.9573   66.0161 C   0  0  0  0  0  0
   18.2155   24.9354   67.6051 C   0  0  0  0  0  0
   18.0009   26.2623   67.9948 C   0  0  0  0  0  0
   19.0571   27.0147   68.5455 C   0  0  0  0  0  0
   18.8277   28.3554   68.9341 C   0  0  0  0  0  0
   19.8807   29.1045   69.4841 C   0  0  0  0  0  0
   21.1453   28.5340   69.6458 C   0  0  0  0  0  0
   21.3674   27.2061   69.2601 C   0  0  0  0  0  0
   20.3291   26.4337   68.7072 C   0  0  0  0  0  0
   17.4940   29.0512   68.7960 C   0  0  0  0  0  0
   16.5182   29.2868   70.1846 S   0  0  0  0  0  0
   17.0993   29.4862   67.5983 N   0  0  0  0  0  0
   17.9947   29.3688   66.4528 C   0  0  0  0  0  0
   15.7904   30.1006   67.4003 C   0  0  0  0  0  0
   14.7671   29.0901   66.8541 C   0  0  0  0  0  0
   14.2337   28.2727   67.5571 O   0  0  0  0  0  0
   14.5063   29.1883   65.5457 O   0  0  0  0  0  0
   13.9927   28.5305   65.1198 H   0  0  0  0  0  0
  1  2  1  0  0  0
  1  3  1  0  0  0
  1  4  1  0  0  0
  1  5  1  0  0  0
  5  6  2  0  0  0
  5 16  1  0  0  0
  6  7  1  0  0  0
  6  9  1  0  0  0
  7  8  1  0  0  0
  9 10  2  0  0  0
 10 11  1  0  0  0
 11 12  2  0  0  0
 11 16  1  0  0  0
 12 13  1  0  0  0
 12 17  1  0  0  0
 13 14  2  0  0  0
 14 15  1  0  0  0
 15 16  2  0  0  0
 17 18  2  0  0  0
 17 19  1  0  0  0
 19 20  1  0  0  0
 19 21  1  0  0  0
 21 22  1  0  0  0
 22 23  2  0  0  0
 22 24  1  0  0  0
 24 25  1  0  0  0
M  END
>  <CHROM.0>
172.80008195,-95.84660867,0.71028311,-56.58521622,63.60581395,12.88833777
-60.35736690,134.91017440,-154.94601667,-61.54190337,61.44259144,-61.41326028
-60.50081437,-89.80809322

>  <CHROM.1>
-11.19690786,-94.26470619,103.77405670,-97.86104998,77.93862785,171.02663606
18.87522374,26.88365676,68.16505970,-0.56041136,-0.46905742,0.52311138

>  <FORMUL>
      TOL    C16 H14 F3 N1 O3 S1

>  <HET>
 TOL  A 320      24

>  <HETNAM>
     TOL TOLRESTAT

>  <Name>
TOL.pdb

>  <RI>
0

>  <Rbt.Current_Directory>
/home/malgorzata/Desktop/rDOCK_IFD/test/IFD

>  <Rbt.Executable>
rbdock ($Id: //depot/dev/client3/rdock/2013.1/src/exe/rbdock.cxx#4 $)

>  <Rbt.Library>
libRbt.so (2013.1, Build901 2013/11/27)

>  <Rbt.Parameter_File>
/home/malgorzata/Desktop/rDock_2013.1_src/data/scripts/hard_docking.prm

>  <Rbt.Receptor>
cavity.prm

>  <SCORE>
-24.9468

>  <SCORE.INTER>
-14.3204

>  <SCORE.INTER.CONST>
1

>  <SCORE.INTER.POLAR>
-0.947305

>  <SCORE.INTER.REPUL>
0

>  <SCORE.INTER.ROT>
5

>  <SCORE.INTER.VDW>
-21.4996

>  <SCORE.INTER.norm>
-0.596683

>  <SCORE.INTRA>
-5.16455

>  <SCORE.INTRA.DIHEDRAL>
4.90164

>  <SCORE.INTRA.DIHEDRAL.0>
16.9783

>  <SCORE.INTRA.POLAR>
0

>  <SCORE.INTRA.POLAR.0>
0

>  <SCORE.INTRA.REPUL>
0

>  <SCORE.INTRA.REPUL.0>
0

>  <SCORE.INTRA.VDW>
-7.61538

>  <SCORE.INTRA.VDW.0>
4.87734

>  <SCORE.INTRA.norm>
-0.21519

>  <SCORE.RESTR>
0

>  <SCORE.RESTR.CAVITY>
0

>  <SCORE.RESTR.norm>
0

>  <SCORE.SYSTEM>
-5.46184

>  <SCORE.SYSTEM.CONST>
0

>  <SCORE.SYSTEM.DIHEDRAL>
2.309

>  <SCORE.SYSTEM.POLAR>
-2.21574

>  <SCORE.SYSTEM.REPUL>
0.929057

>  <SCORE.SYSTEM.VDW>
-3.7281

>  <SCORE.SYSTEM.norm>
-0.227577

>  <SCORE.heavy>
24

>  <SCORE.norm>
-1.03945

$$$$
