612.pdb
  rDOCK(R)          3D
libRbt.so/2013.1/901 2013/11/27
 23 24  0  0  0  0  0  0  0  0999 V2000
   -0.3927  -34.6040   26.4559 C   0  0  0  0  0  0
    0.4495  -34.6067   25.1888 C   0  0  0  0  0  0
    1.9080  -34.4125   25.5107 C   0  0  0  0  0  0
    2.1213  -33.1203   26.2931 C   0  0  0  0  0  0
    1.2880  -33.1307   27.5681 C   0  0  0  0  0  0
   -0.1757  -33.3114   27.2305 C   0  0  0  0  0  0
   -2.1279  -34.6554   25.8832 S   0  0  0  0  0  0
   -2.3585  -33.3370   24.5919 C   0  0  0  0  0  0
   -2.3559  -33.6492   23.2396 C   0  0  0  0  0  0
   -2.4681  -35.0776   22.6744 C   0  0  0  0  0  0
   -1.2141  -35.5895   22.0055 C   0  0  0  0  0  0
   -3.7160  -35.3224   21.8970 C   0  0  0  0  0  0
   -2.4521  -32.5837   22.2562 C   0  0  0  0  0  0
   -2.4024  -32.7689   21.0471 O   0  0  0  0  0  0
   -2.4772  -32.0017   25.0215 N   0  0  0  0  0  0
   -2.5912  -30.9343   24.1085 C   0  0  0  0  0  0
   -2.7167  -29.7649   24.4667 O   0  0  0  0  0  0
   -2.5620  -31.2881   22.7679 N   0  0  0  0  0  0
   -2.5404  -31.6357   26.4592 C   0  0  0  0  0  0
   -3.8753  -31.3775   26.8802 O   0  0  0  0  0  0
   -4.5027  -32.5549   27.3972 C   0  0  0  0  0  0
   -5.1145  -33.3694   26.2843 C   0  0  0  0  0  0
   -2.6248  -30.5554   22.1133 H   0  0  0  0  0  0
  1  2  1  0  0  0
  1  6  1  0  0  0
  1  7  1  0  0  0
  2  3  1  0  0  0
  3  4  1  0  0  0
  4  5  1  0  0  0
  5  6  1  0  0  0
  7  8  1  0  0  0
  8  9  2  0  0  0
  8 15  1  0  0  0
  9 10  1  0  0  0
  9 13  1  0  0  0
 10 11  1  0  0  0
 10 12  1  0  0  0
 13 14  2  0  0  0
 13 18  1  0  0  0
 15 16  1  0  0  0
 15 19  1  0  0  0
 16 17  2  0  0  0
 16 18  1  0  0  0
 18 23  1  0  0  0
 19 20  1  0  0  0
 20 21  1  0  0  0
 21 22  1  0  0  0
M  END
>  <CHROM.0>
-177.68546161,-58.74212400,-168.47914811,69.21095134,84.32841911,-179.55575597

>  <CHROM.1>
-49.71820110,100.41832945,-111.40550637,-100.53854850,91.91533713,-85.57678383
-1.87220234,-33.20049339,24.84286727,-0.68096868,0.52057402,-1.96137218

>  <FORMUL>
      612    C16 H26 N2 O3 S1

>  <HET>
 612  A 999      22

>  <HETNAM>
     612 6-(cyclohexylsulfanyl)-1-(ethoxymethyl)-5-(1-methylethy
   2 612 l)pyrimidine-2,4(1H,3H)-dione

>  <HETSYN>
     612 TNK-6123

>  <Name>
612.pdb

>  <RI>
4.5415e+07

>  <Rbt.Current_Directory>
/home/malgorzata/Desktop/rDOCK_IFD/Wyniki/9_hiv_rt/IFD

>  <Rbt.Executable>
rbdock ($Id: //depot/dev/client3/rdock/2013.1/src/exe/rbdock.cxx#4 $)

>  <Rbt.Library>
libRbt.so (2013.1, Build901 2013/11/27)

>  <Rbt.Parameter_File>
/home/malgorzata/Desktop/rDock_2013.1_src/data/scripts/dock.prm

>  <Rbt.Receptor>
cavity.prm

>  <SCORE>
-3.06489

>  <SCORE.INTER>
-6.74185

>  <SCORE.INTER.CONST>
1

>  <SCORE.INTER.POLAR>
0

>  <SCORE.INTER.REPUL>
0

>  <SCORE.INTER.ROT>
6

>  <SCORE.INTER.VDW>
-18.1418

>  <SCORE.INTER.norm>
-0.306448

>  <SCORE.INTRA>
1.55668

>  <SCORE.INTRA.DIHEDRAL>
0.042999

>  <SCORE.INTRA.DIHEDRAL.0>
11.8882

>  <SCORE.INTRA.POLAR>
0

>  <SCORE.INTRA.POLAR.0>
0

>  <SCORE.INTRA.REPUL>
0

>  <SCORE.INTRA.REPUL.0>
0

>  <SCORE.INTRA.VDW>
1.53518

>  <SCORE.INTRA.VDW.0>
-3.04122

>  <SCORE.INTRA.norm>
0.0707582

>  <SCORE.RESTR>
0.0107166

>  <SCORE.RESTR.CAVITY>
0.0107166

>  <SCORE.RESTR.norm>
0.00048712

>  <SCORE.SYSTEM>
2.10956

>  <SCORE.SYSTEM.CONST>
0

>  <SCORE.SYSTEM.DIHEDRAL>
5.73529

>  <SCORE.SYSTEM.VDW>
-0.758082

>  <SCORE.SYSTEM.norm>
0.0958893

>  <SCORE.heavy>
22

>  <SCORE.norm>
-0.139313

$$$$
612.pdb
  rDOCK(R)          3D
libRbt.so/2013.1/901 2013/11/27
 23 24  0  0  0  0  0  0  0  0999 V2000
    0.1692  -32.3801   26.4837 C   0  0  0  0  0  0
   -0.0426  -31.6625   27.8086 C   0  0  0  0  0  0
    0.9937  -30.5886   28.0114 C   0  0  0  0  0  0
    2.4004  -31.1743   27.9382 C   0  0  0  0  0  0
    2.6115  -31.8773   26.6035 C   0  0  0  0  0  0
    1.5741  -32.9629   26.4184 C   0  0  0  0  0  0
   -1.0332  -33.7571   26.4821 S   0  0  0  0  0  0
   -1.4032  -34.2103   24.7168 C   0  0  0  0  0  0
   -0.8234  -35.3242   24.1256 C   0  0  0  0  0  0
   -0.0894  -36.4375   24.8964 C   0  0  0  0  0  0
   -0.8970  -37.0737   26.0032 C   0  0  0  0  0  0
    1.3047  -36.0827   25.2865 C   0  0  0  0  0  0
   -1.0669  -35.5998   22.7198 C   0  0  0  0  0  0
   -0.5515  -36.5282   22.1106 O   0  0  0  0  0  0
   -2.2434  -33.3582   23.9756 N   0  0  0  0  0  0
   -2.5253  -33.5916   22.6147 C   0  0  0  0  0  0
   -3.2732  -32.8696   21.9584 O   0  0  0  0  0  0
   -1.9084  -34.7019   22.0579 N   0  0  0  0  0  0
   -2.9255  -32.1903   24.5887 C   0  0  0  0  0  0
   -3.4865  -32.5121   25.8566 O   0  0  0  0  0  0
   -4.5129  -33.5026   25.7435 C   0  0  0  0  0  0
   -5.1526  -33.7674   27.0839 C   0  0  0  0  0  0
   -2.0800  -34.8740   21.1039 H   0  0  0  0  0  0
  1  2  1  0  0  0
  1  6  1  0  0  0
  1  7  1  0  0  0
  2  3  1  0  0  0
  3  4  1  0  0  0
  4  5  1  0  0  0
  5  6  1  0  0  0
  7  8  1  0  0  0
  8  9  2  0  0  0
  8 15  1  0  0  0
  9 10  1  0  0  0
  9 13  1  0  0  0
 10 11  1  0  0  0
 10 12  1  0  0  0
 13 14  2  0  0  0
 13 18  1  0  0  0
 15 16  1  0  0  0
 15 19  1  0  0  0
 16 17  2  0  0  0
 16 18  1  0  0  0
 18 23  1  0  0  0
 19 20  1  0  0  0
 20 21  1  0  0  0
 21 22  1  0  0  0
M  END
>  <CHROM.0>
64.91598317,-62.90087288,17.72077733,69.97432004,14.87945667,-161.31454712

>  <CHROM.1>
155.13949849,101.87543335,54.70822949,-43.67184235,-63.55262117,-176.49400902
-1.06954157,-33.73333963,25.23123953,0.92298325,-0.26314474,0.77171425

>  <FORMUL>
      612    C16 H26 N2 O3 S1

>  <HET>
 612  A 999      22

>  <HETNAM>
     612 6-(cyclohexylsulfanyl)-1-(ethoxymethyl)-5-(1-methylethy
   2 612 l)pyrimidine-2,4(1H,3H)-dione

>  <HETSYN>
     612 TNK-6123

>  <Name>
612.pdb

>  <RI>
4.5415e+07

>  <Rbt.Current_Directory>
/home/malgorzata/Desktop/rDOCK_IFD/Wyniki/9_hiv_rt/IFD

>  <Rbt.Executable>
rbdock ($Id: //depot/dev/client3/rdock/2013.1/src/exe/rbdock.cxx#4 $)

>  <Rbt.Library>
libRbt.so (2013.1, Build901 2013/11/27)

>  <Rbt.Parameter_File>
/home/malgorzata/Desktop/rDock_2013.1_src/data/scripts/dock.prm

>  <Rbt.Receptor>
cavity.prm

>  <SCORE>
-16.3805

>  <SCORE.INTER>
-14.6067

>  <SCORE.INTER.CONST>
1

>  <SCORE.INTER.POLAR>
-0.790533

>  <SCORE.INTER.REPUL>
0

>  <SCORE.INTER.ROT>
6

>  <SCORE.INTER.VDW>
-23.3189

>  <SCORE.INTER.norm>
-0.66394

>  <SCORE.INTRA>
-2.61868

>  <SCORE.INTRA.DIHEDRAL>
-5.9775

>  <SCORE.INTRA.DIHEDRAL.0>
11.8882

>  <SCORE.INTRA.POLAR>
0

>  <SCORE.INTRA.POLAR.0>
0

>  <SCORE.INTRA.REPUL>
0

>  <SCORE.INTRA.REPUL.0>
0

>  <SCORE.INTRA.VDW>
0.370072

>  <SCORE.INTRA.VDW.0>
-3.04122

>  <SCORE.INTRA.norm>
-0.119031

>  <SCORE.RESTR>
0

>  <SCORE.RESTR.CAVITY>
0

>  <SCORE.RESTR.norm>
0

>  <SCORE.SYSTEM>
0.84483

>  <SCORE.SYSTEM.CONST>
0

>  <SCORE.SYSTEM.DIHEDRAL>
2.13474

>  <SCORE.SYSTEM.VDW>
-0.222539

>  <SCORE.SYSTEM.norm>
0.0384014

>  <SCORE.heavy>
22

>  <SCORE.norm>
-0.744569

$$$$
612.pdb
  rDOCK(R)          3D
libRbt.so/2013.1/901 2013/11/27
 23 24  0  0  0  0  0  0  0  0999 V2000
   -2.0715  -32.8395   27.1935 C   0  0  0  0  0  0
   -2.2529  -32.7618   25.6848 C   0  0  0  0  0  0
   -3.1311  -31.5979   25.3069 C   0  0  0  0  0  0
   -4.4842  -31.6928   26.0052 C   0  0  0  0  0  0
   -4.2964  -31.7541   27.5155 C   0  0  0  0  0  0
   -3.4253  -32.9352   27.8832 C   0  0  0  0  0  0
   -1.1552  -34.3931   27.4908 S   0  0  0  0  0  0
    0.5144  -34.2529   26.6836 C   0  0  0  0  0  0
    0.9326  -35.1765   25.7357 C   0  0  0  0  0  0
    0.0073  -36.1938   25.0420 C   0  0  0  0  0  0
   -1.0237  -35.5815   24.1232 C   0  0  0  0  0  0
   -0.5359  -37.2370   25.9574 C   0  0  0  0  0  0
    2.2760  -35.0865   25.1890 C   0  0  0  0  0  0
    2.7400  -35.8911   24.3917 O   0  0  0  0  0  0
    1.3689  -33.2161   27.1035 N   0  0  0  0  0  0
    2.6739  -33.0746   26.5909 C   0  0  0  0  0  0
    3.4255  -32.1631   26.9310 O   0  0  0  0  0  0
    3.0592  -34.0309   25.6633 N   0  0  0  0  0  0
    0.9361  -32.1777   28.0728 C   0  0  0  0  0  0
    1.5603  -30.9243   27.8177 O   0  0  0  0  0  0
    1.1133  -30.3533   26.5843 C   0  0  0  0  0  0
    1.9018  -29.1110   26.2514 C   0  0  0  0  0  0
    3.9730  -33.9590   25.3042 H   0  0  0  0  0  0
  1  2  1  0  0  0
  1  6  1  0  0  0
  1  7  1  0  0  0
  2  3  1  0  0  0
  3  4  1  0  0  0
  4  5  1  0  0  0
  5  6  1  0  0  0
  7  8  1  0  0  0
  8  9  2  0  0  0
  8 15  1  0  0  0
  9 10  1  0  0  0
  9 13  1  0  0  0
 10 11  1  0  0  0
 10 12  1  0  0  0
 13 14  2  0  0  0
 13 18  1  0  0  0
 15 16  1  0  0  0
 15 19  1  0  0  0
 16 17  2  0  0  0
 16 18  1  0  0  0
 18 23  1  0  0  0
 19 20  1  0  0  0
 20 21  1  0  0  0
 21 22  1  0  0  0
M  END
>  <CHROM.0>
-178.28660903,104.44661763,-178.81625130,-62.29467307,-6.88785582,2.87422792

>  <CHROM.1>
63.34859024,-123.00447097,66.77488762,-147.63334655,67.56004702,-173.30449903
-0.03148927,-33.32178469,26.39005692,2.80947292,0.05387370,0.31238483

>  <FORMUL>
      612    C16 H26 N2 O3 S1

>  <HET>
 612  A 999      22

>  <HETNAM>
     612 6-(cyclohexylsulfanyl)-1-(ethoxymethyl)-5-(1-methylethy
   2 612 l)pyrimidine-2,4(1H,3H)-dione

>  <HETSYN>
     612 TNK-6123

>  <Name>
612.pdb

>  <RI>
4.5415e+07

>  <Rbt.Current_Directory>
/home/malgorzata/Desktop/rDOCK_IFD/Wyniki/9_hiv_rt/IFD

>  <Rbt.Executable>
rbdock ($Id: //depot/dev/client3/rdock/2013.1/src/exe/rbdock.cxx#4 $)

>  <Rbt.Library>
libRbt.so (2013.1, Build901 2013/11/27)

>  <Rbt.Parameter_File>
/home/malgorzata/Desktop/rDock_2013.1_src/data/scripts/dock.prm

>  <Rbt.Receptor>
cavity.prm

>  <SCORE>
-15.7815

>  <SCORE.INTER>
-15.0179

>  <SCORE.INTER.CONST>
1

>  <SCORE.INTER.POLAR>
0

>  <SCORE.INTER.REPUL>
0

>  <SCORE.INTER.ROT>
6

>  <SCORE.INTER.VDW>
-26.4179

>  <SCORE.INTER.norm>
-0.682632

>  <SCORE.INTRA>
-1.56528

>  <SCORE.INTRA.DIHEDRAL>
-6.31743

>  <SCORE.INTRA.DIHEDRAL.0>
11.8882

>  <SCORE.INTRA.POLAR>
0

>  <SCORE.INTRA.POLAR.0>
0

>  <SCORE.INTRA.REPUL>
0

>  <SCORE.INTRA.REPUL.0>
0

>  <SCORE.INTRA.VDW>
1.59343

>  <SCORE.INTRA.VDW.0>
-3.04122

>  <SCORE.INTRA.norm>
-0.0711491

>  <SCORE.RESTR>
0

>  <SCORE.RESTR.CAVITY>
0

>  <SCORE.RESTR.norm>
0

>  <SCORE.SYSTEM>
0.801709

>  <SCORE.SYSTEM.CONST>
0

>  <SCORE.SYSTEM.DIHEDRAL>
0.55675

>  <SCORE.SYSTEM.VDW>
0.523334

>  <SCORE.SYSTEM.norm>
0.0364413

>  <SCORE.heavy>
22

>  <SCORE.norm>
-0.71734

$$$$
612.pdb
  rDOCK(R)          3D
libRbt.so/2013.1/901 2013/11/27
 23 24  0  0  0  0  0  0  0  0999 V2000
   -2.7241  -33.5057   26.5698 C   0  0  0  0  0  0
   -4.0107  -33.3639   27.3696 C   0  0  0  0  0  0
   -5.1588  -32.9698   26.4780 C   0  0  0  0  0  0
   -4.8453  -31.6757   25.7335 C   0  0  0  0  0  0
   -3.5653  -31.8293   24.9223 C   0  0  0  0  0  0
   -2.4171  -32.2105   25.8308 C   0  0  0  0  0  0
   -1.4127  -33.7932   27.8105 S   0  0  0  0  0  0
    0.1857  -34.1057   26.9126 C   0  0  0  0  0  0
    1.2465  -33.2155   27.0056 C   0  0  0  0  0  0
    1.3467  -32.0842   28.0460 C   0  0  0  0  0  0
    0.8946  -32.4662   29.4358 C   0  0  0  0  0  0
    0.8115  -30.7774   27.5693 C   0  0  0  0  0  0
    2.4487  -33.4466   26.2228 C   0  0  0  0  0  0
    3.4054  -32.6830   26.2061 O   0  0  0  0  0  0
    0.2709  -35.2423   26.0866 N   0  0  0  0  0  0
    1.4210  -35.5208   25.3215 C   0  0  0  0  0  0
    1.5201  -36.5195   24.6114 O   0  0  0  0  0  0
    2.4481  -34.5949   25.4265 N   0  0  0  0  0  0
   -0.8211  -36.2453   26.0057 C   0  0  0  0  0  0
   -1.2466  -36.4557   24.6639 O   0  0  0  0  0  0
   -1.7586  -35.2548   24.0782 C   0  0  0  0  0  0
   -2.1347  -35.4802   22.6346 C   0  0  0  0  0  0
    3.2549  -34.7628   24.8879 H   0  0  0  0  0  0
  1  2  1  0  0  0
  1  6  1  0  0  0
  1  7  1  0  0  0
  2  3  1  0  0  0
  3  4  1  0  0  0
  4  5  1  0  0  0
  5  6  1  0  0  0
  7  8  1  0  0  0
  8  9  2  0  0  0
  8 15  1  0  0  0
  9 10  1  0  0  0
  9 13  1  0  0  0
 10 11  1  0  0  0
 10 12  1  0  0  0
 13 14  2  0  0  0
 13 18  1  0  0  0
 15 16  1  0  0  0
 15 19  1  0  0  0
 16 17  2  0  0  0
 16 18  1  0  0  0
 18 23  1  0  0  0
 19 20  1  0  0  0
 20 21  1  0  0  0
 21 22  1  0  0  0
M  END
>  <CHROM.0>
-58.39024319,110.39562826,-176.44246695,70.05912574,4.50907370,8.36619809

>  <CHROM.1>
175.84665263,113.96306697,41.09228297,125.53707484,-61.01063085,176.94744581
-0.68138862,-33.81254475,26.19571617,-3.07749345,0.16090361,-2.42237625

>  <FORMUL>
      612    C16 H26 N2 O3 S1

>  <HET>
 612  A 999      22

>  <HETNAM>
     612 6-(cyclohexylsulfanyl)-1-(ethoxymethyl)-5-(1-methylethy
   2 612 l)pyrimidine-2,4(1H,3H)-dione

>  <HETSYN>
     612 TNK-6123

>  <Name>
612.pdb

>  <RI>
4.5415e+07

>  <Rbt.Current_Directory>
/home/malgorzata/Desktop/rDOCK_IFD/Wyniki/9_hiv_rt/IFD

>  <Rbt.Executable>
rbdock ($Id: //depot/dev/client3/rdock/2013.1/src/exe/rbdock.cxx#4 $)

>  <Rbt.Library>
libRbt.so (2013.1, Build901 2013/11/27)

>  <Rbt.Parameter_File>
/home/malgorzata/Desktop/rDock_2013.1_src/data/scripts/dock.prm

>  <Rbt.Receptor>
cavity.prm

>  <SCORE>
-17.3825

>  <SCORE.INTER>
-15.096

>  <SCORE.INTER.CONST>
1

>  <SCORE.INTER.POLAR>
0

>  <SCORE.INTER.REPUL>
0

>  <SCORE.INTER.ROT>
6

>  <SCORE.INTER.VDW>
-26.496

>  <SCORE.INTER.norm>
-0.686183

>  <SCORE.INTRA>
-3.00633

>  <SCORE.INTRA.DIHEDRAL>
-6.78546

>  <SCORE.INTRA.DIHEDRAL.0>
11.8882

>  <SCORE.INTRA.POLAR>
0

>  <SCORE.INTRA.POLAR.0>
0

>  <SCORE.INTRA.REPUL>
0

>  <SCORE.INTRA.REPUL.0>
0

>  <SCORE.INTRA.VDW>
0.386396

>  <SCORE.INTRA.VDW.0>
-3.04122

>  <SCORE.INTRA.norm>
-0.136652

>  <SCORE.RESTR>
0

>  <SCORE.RESTR.CAVITY>
0

>  <SCORE.RESTR.norm>
0

>  <SCORE.SYSTEM>
0.719864

>  <SCORE.SYSTEM.CONST>
0

>  <SCORE.SYSTEM.DIHEDRAL>
1.03154

>  <SCORE.SYSTEM.VDW>
0.204095

>  <SCORE.SYSTEM.norm>
0.0327211

>  <SCORE.heavy>
22

>  <SCORE.norm>
-0.790113

$$$$
612.pdb
  rDOCK(R)          3D
libRbt.so/2013.1/901 2013/11/27
 23 24  0  0  0  0  0  0  0  0999 V2000
   -1.9164  -34.1605   24.2536 C   0  0  0  0  0  0
   -2.2451  -35.4355   23.4910 C   0  0  0  0  0  0
   -2.2522  -35.1880   22.0053 C   0  0  0  0  0  0
   -3.2376  -34.0800   21.6467 C   0  0  0  0  0  0
   -2.8937  -32.8022   22.4011 C   0  0  0  0  0  0
   -2.9044  -33.0601   23.8918 C   0  0  0  0  0  0
   -2.1358  -34.5829   26.0187 S   0  0  0  0  0  0
   -1.1666  -33.3659   27.0376 C   0  0  0  0  0  0
   -1.8056  -32.4606   27.8733 C   0  0  0  0  0  0
   -3.2889  -32.5458   28.2795 C   0  0  0  0  0  0
   -3.7127  -33.8849   28.8354 C   0  0  0  0  0  0
   -4.2251  -31.9838   27.2650 C   0  0  0  0  0  0
   -1.0226  -31.4673   28.5888 C   0  0  0  0  0  0
   -1.5126  -30.6008   29.3013 O   0  0  0  0  0  0
    0.2336  -33.3477   26.8941 N   0  0  0  0  0  0
    1.0392  -32.4166   27.5796 C   0  0  0  0  0  0
    2.2647  -32.4003   27.4819 O   0  0  0  0  0  0
    0.3591  -31.5165   28.3862 N   0  0  0  0  0  0
    0.9558  -34.3362   26.0537 C   0  0  0  0  0  0
    1.3333  -35.4880   26.7997 O   0  0  0  0  0  0
    1.3098  -36.6700   25.9937 C   0  0  0  0  0  0
   -0.0903  -37.2229   25.8930 C   0  0  0  0  0  0
    0.9024  -30.8475   28.8621 H   0  0  0  0  0  0
  1  2  1  0  0  0
  1  6  1  0  0  0
  1  7  1  0  0  0
  2  3  1  0  0  0
  3  4  1  0  0  0
  4  5  1  0  0  0
  5  6  1  0  0  0
  7  8  1  0  0  0
  8  9  2  0  0  0
  8 15  1  0  0  0
  9 10  1  0  0  0
  9 13  1  0  0  0
 10 11  1  0  0  0
 10 12  1  0  0  0
 13 14  2  0  0  0
 13 18  1  0  0  0
 15 16  1  0  0  0
 15 19  1  0  0  0
 16 17  2  0  0  0
 16 18  1  0  0  0
 18 23  1  0  0  0
 19 20  1  0  0  0
 20 21  1  0  0  0
 21 22  1  0  0  0
M  END
>  <CHROM.0>
-59.56568298,103.77275726,-177.86759540,-178.88961198,7.33060702,3.35747728

>  <CHROM.1>
158.60199989,113.42324162,51.84086906,-90.15741045,147.00179160,-82.35062744
-1.24951512,-33.66165903,26.18099647,1.89430657,0.46071020,-2.17440903

>  <FORMUL>
      612    C16 H26 N2 O3 S1

>  <HET>
 612  A 999      22

>  <HETNAM>
     612 6-(cyclohexylsulfanyl)-1-(ethoxymethyl)-5-(1-methylethy
   2 612 l)pyrimidine-2,4(1H,3H)-dione

>  <HETSYN>
     612 TNK-6123

>  <Name>
612.pdb

>  <RI>
4.5415e+07

>  <Rbt.Current_Directory>
/home/malgorzata/Desktop/rDOCK_IFD/Wyniki/9_hiv_rt/IFD

>  <Rbt.Executable>
rbdock ($Id: //depot/dev/client3/rdock/2013.1/src/exe/rbdock.cxx#4 $)

>  <Rbt.Library>
libRbt.so (2013.1, Build901 2013/11/27)

>  <Rbt.Parameter_File>
/home/malgorzata/Desktop/rDock_2013.1_src/data/scripts/dock.prm

>  <Rbt.Receptor>
cavity.prm

>  <SCORE>
-12.9706

>  <SCORE.INTER>
-14.0405

>  <SCORE.INTER.CONST>
1

>  <SCORE.INTER.POLAR>
0

>  <SCORE.INTER.REPUL>
0

>  <SCORE.INTER.ROT>
6

>  <SCORE.INTER.VDW>
-25.4405

>  <SCORE.INTER.norm>
-0.638206

>  <SCORE.INTRA>
0.816646

>  <SCORE.INTRA.DIHEDRAL>
0.34165

>  <SCORE.INTRA.DIHEDRAL.0>
11.8882

>  <SCORE.INTRA.POLAR>
0

>  <SCORE.INTRA.POLAR.0>
0

>  <SCORE.INTRA.REPUL>
0

>  <SCORE.INTRA.REPUL.0>
0

>  <SCORE.INTRA.VDW>
0.645821

>  <SCORE.INTRA.VDW.0>
-3.04122

>  <SCORE.INTRA.norm>
0.0371203

>  <SCORE.RESTR>
0

>  <SCORE.RESTR.CAVITY>
0

>  <SCORE.RESTR.norm>
0

>  <SCORE.SYSTEM>
0.253326

>  <SCORE.SYSTEM.CONST>
0

>  <SCORE.SYSTEM.DIHEDRAL>
0.481785

>  <SCORE.SYSTEM.VDW>
0.0124336

>  <SCORE.SYSTEM.norm>
0.0115148

>  <SCORE.heavy>
22

>  <SCORE.norm>
-0.589571

$$$$
612.pdb
  rDOCK(R)          3D
libRbt.so/2013.1/901 2013/11/27
 23 24  0  0  0  0  0  0  0  0999 V2000
    0.7803  -32.3931   26.4552 C   0  0  0  0  0  0
    0.5854  -31.5417   27.7011 C   0  0  0  0  0  0
    1.3160  -30.2304   27.5773 C   0  0  0  0  0  0
    2.8006  -30.4618   27.3133 C   0  0  0  0  0  0
    2.9894  -31.3011   26.0563 C   0  0  0  0  0  0
    2.2636  -32.6209   26.1989 C   0  0  0  0  0  0
    0.0026  -34.0015   26.8424 S   0  0  0  0  0  0
   -1.2648  -34.3705   25.5323 C   0  0  0  0  0  0
   -2.4157  -33.6043   25.4117 C   0  0  0  0  0  0
   -2.6331  -32.2433   26.0993 C   0  0  0  0  0  0
   -3.6982  -32.2431   27.1706 C   0  0  0  0  0  0
   -2.7224  -31.0963   25.1517 C   0  0  0  0  0  0
   -3.4250  -33.9734   24.4336 C   0  0  0  0  0  0
   -4.4899  -33.3842   24.3012 O   0  0  0  0  0  0
   -1.0537  -35.4870   24.7014 N   0  0  0  0  0  0
   -1.9931  -35.8758   23.7256 C   0  0  0  0  0  0
   -1.8151  -36.8353   22.9778 O   0  0  0  0  0  0
   -3.1382  -35.0967   23.6536 N   0  0  0  0  0  0
    0.1902  -36.2957   24.7635 C   0  0  0  0  0  0
    1.1769  -35.8172   23.8563 O   0  0  0  0  0  0
    0.7247  -35.8851   22.5005 C   0  0  0  0  0  0
    1.8795  -35.7331   21.5416 C   0  0  0  0  0  0
   -3.8144  -35.3608   22.9886 H   0  0  0  0  0  0
  1  2  1  0  0  0
  1  6  1  0  0  0
  1  7  1  0  0  0
  2  3  1  0  0  0
  3  4  1  0  0  0
  4  5  1  0  0  0
  5  6  1  0  0  0
  7  8  1  0  0  0
  8  9  2  0  0  0
  8 15  1  0  0  0
  9 10  1  0  0  0
  9 13  1  0  0  0
 10 11  1  0  0  0
 10 12  1  0  0  0
 13 14  2  0  0  0
 13 18  1  0  0  0
 15 16  1  0  0  0
 15 19  1  0  0  0
 16 17  2  0  0  0
 16 18  1  0  0  0
 18 23  1  0  0  0
 19 20  1  0  0  0
 20 21  1  0  0  0
 21 22  1  0  0  0
M  END
>  <CHROM.0>
59.27862129,-90.92106805,-179.87875980,68.20973827,4.57817433,3.58854031

>  <CHROM.1>
124.40932292,-67.24486266,-112.55407083,-91.15898547,-61.22762081,-164.84513172
-0.59344500,-33.69598868,25.23681311,-1.08073351,0.01250949,-2.45334179

>  <FORMUL>
      612    C16 H26 N2 O3 S1

>  <HET>
 612  A 999      22

>  <HETNAM>
     612 6-(cyclohexylsulfanyl)-1-(ethoxymethyl)-5-(1-methylethy
   2 612 l)pyrimidine-2,4(1H,3H)-dione

>  <HETSYN>
     612 TNK-6123

>  <Name>
612.pdb

>  <RI>
4.5415e+07

>  <Rbt.Current_Directory>
/home/malgorzata/Desktop/rDOCK_IFD/Wyniki/9_hiv_rt/IFD

>  <Rbt.Executable>
rbdock ($Id: //depot/dev/client3/rdock/2013.1/src/exe/rbdock.cxx#4 $)

>  <Rbt.Library>
libRbt.so (2013.1, Build901 2013/11/27)

>  <Rbt.Parameter_File>
/home/malgorzata/Desktop/rDock_2013.1_src/data/scripts/dock.prm

>  <Rbt.Receptor>
cavity.prm

>  <SCORE>
-7.55404

>  <SCORE.INTER>
-7.93379

>  <SCORE.INTER.CONST>
1

>  <SCORE.INTER.POLAR>
0

>  <SCORE.INTER.REPUL>
0

>  <SCORE.INTER.ROT>
6

>  <SCORE.INTER.VDW>
-19.3338

>  <SCORE.INTER.norm>
-0.360627

>  <SCORE.INTRA>
-0.0511886

>  <SCORE.INTRA.DIHEDRAL>
-3.2259

>  <SCORE.INTRA.DIHEDRAL.0>
11.8882

>  <SCORE.INTRA.POLAR>
0

>  <SCORE.INTRA.POLAR.0>
0

>  <SCORE.INTRA.REPUL>
0

>  <SCORE.INTRA.REPUL.0>
0

>  <SCORE.INTRA.VDW>
1.56176

>  <SCORE.INTRA.VDW.0>
-3.04122

>  <SCORE.INTRA.norm>
-0.00232675

>  <SCORE.RESTR>
0

>  <SCORE.RESTR.CAVITY>
0

>  <SCORE.RESTR.norm>
0

>  <SCORE.SYSTEM>
0.430945

>  <SCORE.SYSTEM.CONST>
0

>  <SCORE.SYSTEM.DIHEDRAL>
0.763857

>  <SCORE.SYSTEM.VDW>
0.0490161

>  <SCORE.SYSTEM.norm>
0.0195884

>  <SCORE.heavy>
22

>  <SCORE.norm>
-0.343365

$$$$
612.pdb
  rDOCK(R)          3D
libRbt.so/2013.1/901 2013/11/27
 23 24  0  0  0  0  0  0  0  0999 V2000
   -0.1399  -33.3441   26.9101 C   0  0  0  0  0  0
   -0.4560  -31.9404   26.4155 C   0  0  0  0  0  0
    0.5770  -30.9548   26.8951 C   0  0  0  0  0  0
    0.6788  -30.9763   28.4171 C   0  0  0  0  0  0
    1.0111  -32.3805   28.9048 C   0  0  0  0  0  0
   -0.0411  -33.3582   28.4293 C   0  0  0  0  0  0
   -1.5705  -34.3665   26.4101 S   0  0  0  0  0  0
   -1.4468  -34.6947   24.5837 C   0  0  0  0  0  0
   -0.3317  -35.3176   24.0407 C   0  0  0  0  0  0
    0.7427  -36.0537   24.8631 C   0  0  0  0  0  0
    0.1977  -36.9554   25.9456 C   0  0  0  0  0  0
    1.8662  -35.1804   25.3065 C   0  0  0  0  0  0
   -0.2300  -35.4805   22.6004 C   0  0  0  0  0  0
    0.7421  -35.9688   22.0391 O   0  0  0  0  0  0
   -2.4911  -34.2404   23.7562 N   0  0  0  0  0  0
   -2.4488  -34.3905   22.3557 C   0  0  0  0  0  0
   -3.3612  -34.0185   21.6203 O   0  0  0  0  0  0
   -1.3076  -34.9976   21.8532 N   0  0  0  0  0  0
   -3.7237  -33.6210   24.3057 C   0  0  0  0  0  0
   -3.4937  -32.2868   24.7447 O   0  0  0  0  0  0
   -4.6694  -31.7111   25.3223 C   0  0  0  0  0  0
   -4.8892  -32.2309   26.7215 C   0  0  0  0  0  0
   -1.2513  -35.0981   20.8755 H   0  0  0  0  0  0
  1  2  1  0  0  0
  1  6  1  0  0  0
  1  7  1  0  0  0
  2  3  1  0  0  0
  3  4  1  0  0  0
  4  5  1  0  0  0
  5  6  1  0  0  0
  7  8  1  0  0  0
  8  9  2  0  0  0
  8 15  1  0  0  0
  9 10  1  0  0  0
  9 13  1  0  0  0
 10 11  1  0  0  0
 10 12  1  0  0  0
 13 14  2  0  0  0
 13 18  1  0  0  0
 15 16  1  0  0  0
 15 19  1  0  0  0
 16 17  2  0  0  0
 16 18  1  0  0  0
 18 23  1  0  0  0
 19 20  1  0  0  0
 20 21  1  0  0  0
 21 22  1  0  0  0
M  END
>  <CHROM.0>
-54.71339151,-72.51352290,179.75608544,69.58495000,2.81490997,-177.66099557

>  <CHROM.1>
75.70331366,57.73598446,44.14314334,75.53004964,-177.67813347,77.25540783
-1.17532973,-33.85250236,25.17376451,-1.29462173,0.45265271,-2.17462303

>  <FORMUL>
      612    C16 H26 N2 O3 S1

>  <HET>
 612  A 999      22

>  <HETNAM>
     612 6-(cyclohexylsulfanyl)-1-(ethoxymethyl)-5-(1-methylethy
   2 612 l)pyrimidine-2,4(1H,3H)-dione

>  <HETSYN>
     612 TNK-6123

>  <Name>
612.pdb

>  <RI>
4.5415e+07

>  <Rbt.Current_Directory>
/home/malgorzata/Desktop/rDOCK_IFD/Wyniki/9_hiv_rt/IFD

>  <Rbt.Executable>
rbdock ($Id: //depot/dev/client3/rdock/2013.1/src/exe/rbdock.cxx#4 $)

>  <Rbt.Library>
libRbt.so (2013.1, Build901 2013/11/27)

>  <Rbt.Parameter_File>
/home/malgorzata/Desktop/rDock_2013.1_src/data/scripts/dock.prm

>  <Rbt.Receptor>
cavity.prm

>  <SCORE>
-18.1992

>  <SCORE.INTER>
-17.5282

>  <SCORE.INTER.CONST>
1

>  <SCORE.INTER.POLAR>
-0.938083

>  <SCORE.INTER.REPUL>
0

>  <SCORE.INTER.ROT>
6

>  <SCORE.INTER.VDW>
-25.7387

>  <SCORE.INTER.norm>
-0.796734

>  <SCORE.INTRA>
-1.27188

>  <SCORE.INTRA.DIHEDRAL>
-5.15

>  <SCORE.INTRA.DIHEDRAL.0>
11.8882

>  <SCORE.INTRA.POLAR>
0

>  <SCORE.INTRA.POLAR.0>
0

>  <SCORE.INTRA.REPUL>
0

>  <SCORE.INTRA.REPUL.0>
0

>  <SCORE.INTRA.VDW>
1.30312

>  <SCORE.INTRA.VDW.0>
-3.04122

>  <SCORE.INTRA.norm>
-0.0578129

>  <SCORE.RESTR>
0

>  <SCORE.RESTR.CAVITY>
0

>  <SCORE.RESTR.norm>
0

>  <SCORE.SYSTEM>
0.600813

>  <SCORE.SYSTEM.CONST>
0

>  <SCORE.SYSTEM.DIHEDRAL>
0.926617

>  <SCORE.SYSTEM.VDW>
0.137504

>  <SCORE.SYSTEM.norm>
0.0273097

>  <SCORE.heavy>
22

>  <SCORE.norm>
-0.827237

$$$$
612.pdb
  rDOCK(R)          3D
libRbt.so/2013.1/901 2013/11/27
 23 24  0  0  0  0  0  0  0  0999 V2000
   -0.6092  -32.7864   26.8514 C   0  0  0  0  0  0
   -0.9286  -32.4450   28.2994 C   0  0  0  0  0  0
   -0.1058  -31.2751   28.7712 C   0  0  0  0  0  0
    1.3837  -31.5593   28.6037 C   0  0  0  0  0  0
    1.6994  -31.8846   27.1496 C   0  0  0  0  0  0
    0.8781  -33.0700   26.6922 C   0  0  0  0  0  0
   -1.5358  -34.3228   26.5013 S   0  0  0  0  0  0
   -1.3161  -34.7432   24.7030 C   0  0  0  0  0  0
   -0.1064  -35.2238   24.2214 C   0  0  0  0  0  0
    1.0437  -35.7360   25.1087 C   0  0  0  0  0  0
    2.4254  -35.3668   24.6224 C   0  0  0  0  0  0
    0.9023  -37.1630   25.5150 C   0  0  0  0  0  0
    0.0567  -35.4600   22.7969 C   0  0  0  0  0  0
    1.1054  -35.8305   22.2856 O   0  0  0  0  0  0
   -2.3942  -34.5048   23.8299 N   0  0  0  0  0  0
   -2.2928  -34.7348   22.4433 C   0  0  0  0  0  0
   -3.2307  -34.5518   21.6697 O   0  0  0  0  0  0
   -1.0608  -35.1933   22.0014 N   0  0  0  0  0  0
   -3.7197  -34.0449   24.3164 C   0  0  0  0  0  0
   -3.5988  -32.9715   25.2430 O   0  0  0  0  0  0
   -4.8411  -32.6967   25.8974 C   0  0  0  0  0  0
   -4.6418  -31.7399   27.0468 C   0  0  0  0  0  0
   -0.9642  -35.3457   21.0336 H   0  0  0  0  0  0
  1  2  1  0  0  0
  1  6  1  0  0  0
  1  7  1  0  0  0
  2  3  1  0  0  0
  3  4  1  0  0  0
  4  5  1  0  0  0
  5  6  1  0  0  0
  7  8  1  0  0  0
  8  9  2  0  0  0
  8 15  1  0  0  0
  9 10  1  0  0  0
  9 13  1  0  0  0
 10 11  1  0  0  0
 10 12  1  0  0  0
 13 14  2  0  0  0
 13 18  1  0  0  0
 15 16  1  0  0  0
 15 19  1  0  0  0
 16 17  2  0  0  0
 16 18  1  0  0  0
 18 23  1  0  0  0
 19 20  1  0  0  0
 20 21  1  0  0  0
 21 22  1  0  0  0
M  END
>  <CHROM.0>
61.73496742,-71.25128939,-175.73561068,69.46855402,6.25042434,5.80731033

>  <CHROM.1>
175.42444289,72.28314680,-141.75736986,46.70309960,-169.08188224,169.57112427
-1.00246604,-33.97986452,25.26895542,-1.53498300,0.26569785,-2.16229386

>  <FORMUL>
      612    C16 H26 N2 O3 S1

>  <HET>
 612  A 999      22

>  <HETNAM>
     612 6-(cyclohexylsulfanyl)-1-(ethoxymethyl)-5-(1-methylethy
   2 612 l)pyrimidine-2,4(1H,3H)-dione

>  <HETSYN>
     612 TNK-6123

>  <Name>
612.pdb

>  <RI>
4.5415e+07

>  <Rbt.Current_Directory>
/home/malgorzata/Desktop/rDOCK_IFD/Wyniki/9_hiv_rt/IFD

>  <Rbt.Executable>
rbdock ($Id: //depot/dev/client3/rdock/2013.1/src/exe/rbdock.cxx#4 $)

>  <Rbt.Library>
libRbt.so (2013.1, Build901 2013/11/27)

>  <Rbt.Parameter_File>
/home/malgorzata/Desktop/rDock_2013.1_src/data/scripts/dock.prm

>  <Rbt.Receptor>
cavity.prm

>  <SCORE>
-16.2294

>  <SCORE.INTER>
-16.0196

>  <SCORE.INTER.CONST>
1

>  <SCORE.INTER.POLAR>
-0.932181

>  <SCORE.INTER.REPUL>
0

>  <SCORE.INTER.ROT>
6

>  <SCORE.INTER.VDW>
-24.2502

>  <SCORE.INTER.norm>
-0.728165

>  <SCORE.INTRA>
-0.597214

>  <SCORE.INTRA.DIHEDRAL>
-5.52362

>  <SCORE.INTRA.DIHEDRAL.0>
11.8882

>  <SCORE.INTRA.POLAR>
0

>  <SCORE.INTRA.POLAR.0>
0

>  <SCORE.INTRA.REPUL>
0

>  <SCORE.INTRA.REPUL.0>
0

>  <SCORE.INTRA.VDW>
2.1646

>  <SCORE.INTRA.VDW.0>
-3.04122

>  <SCORE.INTRA.norm>
-0.0271461

>  <SCORE.RESTR>
0

>  <SCORE.RESTR.CAVITY>
0

>  <SCORE.RESTR.norm>
0

>  <SCORE.SYSTEM>
0.387419

>  <SCORE.SYSTEM.CONST>
0

>  <SCORE.SYSTEM.DIHEDRAL>
0.952004

>  <SCORE.SYSTEM.VDW>
-0.088583

>  <SCORE.SYSTEM.norm>
0.01761

>  <SCORE.heavy>
22

>  <SCORE.norm>
-0.737701

$$$$
612.pdb
  rDOCK(R)          3D
libRbt.so/2013.1/901 2013/11/27
 23 24  0  0  0  0  0  0  0  0999 V2000
    0.4192  -32.4421   26.8789 C   0  0  0  0  0  0
    0.3638  -31.4973   28.0704 C   0  0  0  0  0  0
    1.3109  -30.3409   27.8855 C   0  0  0  0  0  0
    2.7354  -30.8393   27.6627 C   0  0  0  0  0  0
    2.7870  -31.7717   26.4594 C   0  0  0  0  0  0
    1.8430  -32.9362   26.6636 C   0  0  0  0  0  0
   -0.6279  -33.8670   27.3427 S   0  0  0  0  0  0
   -1.5704  -34.4168   25.8367 C   0  0  0  0  0  0
   -2.5162  -33.5932   25.2422 C   0  0  0  0  0  0
   -2.6767  -32.0912   25.5429 C   0  0  0  0  0  0
   -3.8327  -31.7524   26.4544 C   0  0  0  0  0  0
   -2.5767  -31.2207   24.3372 C   0  0  0  0  0  0
   -3.2953  -34.0878   24.1196 C   0  0  0  0  0  0
   -4.1844  -33.4464   23.5749 O   0  0  0  0  0  0
   -1.3409  -35.7172   25.3491 N   0  0  0  0  0  0
   -2.0569  -36.2372   24.2524 C   0  0  0  0  0  0
   -1.8545  -37.3626   23.8008 O   0  0  0  0  0  0
   -3.0072  -35.3899   23.7024 N   0  0  0  0  0  0
   -0.2986  -36.6052   25.9236 C   0  0  0  0  0  0
    0.8188  -36.7403   25.0525 O   0  0  0  0  0  0
    1.5437  -35.5128   24.9296 C   0  0  0  0  0  0
    2.8137  -35.7166   24.1412 C   0  0  0  0  0  0
   -3.5294  -35.7398   22.9447 H   0  0  0  0  0  0
  1  2  1  0  0  0
  1  6  1  0  0  0
  1  7  1  0  0  0
  2  3  1  0  0  0
  3  4  1  0  0  0
  4  5  1  0  0  0
  5  6  1  0  0  0
  7  8  1  0  0  0
  8  9  2  0  0  0
  8 15  1  0  0  0
  9 10  1  0  0  0
  9 13  1  0  0  0
 10 11  1  0  0  0
 10 12  1  0  0  0
 13 14  2  0  0  0
 13 18  1  0  0  0
 15 16  1  0  0  0
 15 19  1  0  0  0
 16 17  2  0  0  0
 16 18  1  0  0  0
 18 23  1  0  0  0
 19 20  1  0  0  0
 20 21  1  0  0  0
 21 22  1  0  0  0
M  END
>  <CHROM.0>
-57.89323132,-72.28078149,5.30055581,69.66352542,7.69446388,-175.61692258

>  <CHROM.1>
141.45862535,-64.96505688,-102.36237588,-107.01926974,67.70005386,173.08581928
-0.67595022,-33.82773250,25.67141626,0.82447412,-0.28898635,0.43301978

>  <FORMUL>
      612    C16 H26 N2 O3 S1

>  <HET>
 612  A 999      22

>  <HETNAM>
     612 6-(cyclohexylsulfanyl)-1-(ethoxymethyl)-5-(1-methylethy
   2 612 l)pyrimidine-2,4(1H,3H)-dione

>  <HETSYN>
     612 TNK-6123

>  <Name>
612.pdb

>  <RI>
4.5415e+07

>  <Rbt.Current_Directory>
/home/malgorzata/Desktop/rDOCK_IFD/Wyniki/9_hiv_rt/IFD

>  <Rbt.Executable>
rbdock ($Id: //depot/dev/client3/rdock/2013.1/src/exe/rbdock.cxx#4 $)

>  <Rbt.Library>
libRbt.so (2013.1, Build901 2013/11/27)

>  <Rbt.Parameter_File>
/home/malgorzata/Desktop/rDock_2013.1_src/data/scripts/dock.prm

>  <Rbt.Receptor>
cavity.prm

>  <SCORE>
-10.3627

>  <SCORE.INTER>
-9.56512

>  <SCORE.INTER.CONST>
1

>  <SCORE.INTER.POLAR>
0

>  <SCORE.INTER.REPUL>
0

>  <SCORE.INTER.ROT>
6

>  <SCORE.INTER.VDW>
-20.9651

>  <SCORE.INTER.norm>
-0.434778

>  <SCORE.INTRA>
-1.37272

>  <SCORE.INTRA.DIHEDRAL>
-4.55315

>  <SCORE.INTRA.DIHEDRAL.0>
11.8882

>  <SCORE.INTRA.POLAR>
0

>  <SCORE.INTRA.POLAR.0>
0

>  <SCORE.INTRA.REPUL>
0

>  <SCORE.INTRA.REPUL.0>
0

>  <SCORE.INTRA.VDW>
0.903852

>  <SCORE.INTRA.VDW.0>
-3.04122

>  <SCORE.INTRA.norm>
-0.0623964

>  <SCORE.RESTR>
0

>  <SCORE.RESTR.CAVITY>
0

>  <SCORE.RESTR.norm>
0

>  <SCORE.SYSTEM>
0.575152

>  <SCORE.SYSTEM.CONST>
0

>  <SCORE.SYSTEM.DIHEDRAL>
0.98887

>  <SCORE.SYSTEM.VDW>
0.0807169

>  <SCORE.SYSTEM.norm>
0.0261433

>  <SCORE.heavy>
22

>  <SCORE.norm>
-0.471031

$$$$
612.pdb
  rDOCK(R)          3D
libRbt.so/2013.1/901 2013/11/27
 23 24  0  0  0  0  0  0  0  0999 V2000
    0.8032  -31.8496   26.5567 C   0  0  0  0  0  0
    0.7516  -30.7371   27.5934 C   0  0  0  0  0  0
    1.6192  -29.5767   27.1819 C   0  0  0  0  0  0
    3.0576  -30.0312   26.9548 C   0  0  0  0  0  0
    3.1041  -31.1336   25.9047 C   0  0  0  0  0  0
    2.2410  -32.2989   26.3364 C   0  0  0  0  0  0
   -0.1346  -33.2372   27.2898 S   0  0  0  0  0  0
   -1.3708  -33.8364   26.0363 C   0  0  0  0  0  0
   -1.1612  -35.0107   25.3267 C   0  0  0  0  0  0
   -0.0991  -36.0674   25.6839 C   0  0  0  0  0  0
    1.0694  -36.1323   24.7288 C   0  0  0  0  0  0
   -0.6684  -37.3978   26.0409 C   0  0  0  0  0  0
   -2.1047  -35.4040   24.2939 C   0  0  0  0  0  0
   -1.9645  -36.3936   23.5872 O   0  0  0  0  0  0
   -2.4999  -33.0348   25.7828 N   0  0  0  0  0  0
   -3.4533  -33.3813   24.8047 C   0  0  0  0  0  0
   -4.4554  -32.7038   24.5852 O   0  0  0  0  0  0
   -3.1941  -34.5497   24.1041 N   0  0  0  0  0  0
   -2.7861  -31.8026   26.5605 C   0  0  0  0  0  0
   -3.6454  -32.0628   27.6648 O   0  0  0  0  0  0
   -2.9465  -32.6991   28.7390 C   0  0  0  0  0  0
   -2.1123  -31.7003   29.5023 C   0  0  0  0  0  0
   -3.8403  -34.8017   23.4054 H   0  0  0  0  0  0
  1  2  1  0  0  0
  1  6  1  0  0  0
  1  7  1  0  0  0
  2  3  1  0  0  0
  3  4  1  0  0  0
  4  5  1  0  0  0
  5  6  1  0  0  0
  7  8  1  0  0  0
  8  9  2  0  0  0
  8 15  1  0  0  0
  9 10  1  0  0  0
  9 13  1  0  0  0
 10 11  1  0  0  0
 10 12  1  0  0  0
 13 14  2  0  0  0
 13 18  1  0  0  0
 15 16  1  0  0  0
 15 19  1  0  0  0
 16 17  2  0  0  0
 16 18  1  0  0  0
 18 23  1  0  0  0
 19 20  1  0  0  0
 20 21  1  0  0  0
 21 22  1  0  0  0
M  END
>  <CHROM.0>
62.12811937,-64.62831180,5.37331564,-63.17584608,8.48002736,-174.93914400

>  <CHROM.1>
130.05291047,104.01315747,-108.74121649,-93.11841555,76.13301560,77.13109774
-0.89448318,-33.22674511,26.21843223,-0.90039404,-0.05273104,-2.59965570

>  <FORMUL>
      612    C16 H26 N2 O3 S1

>  <HET>
 612  A 999      22

>  <HETNAM>
     612 6-(cyclohexylsulfanyl)-1-(ethoxymethyl)-5-(1-methylethy
   2 612 l)pyrimidine-2,4(1H,3H)-dione

>  <HETSYN>
     612 TNK-6123

>  <Name>
612.pdb

>  <RI>
4.5415e+07

>  <Rbt.Current_Directory>
/home/malgorzata/Desktop/rDOCK_IFD/Wyniki/9_hiv_rt/IFD

>  <Rbt.Executable>
rbdock ($Id: //depot/dev/client3/rdock/2013.1/src/exe/rbdock.cxx#4 $)

>  <Rbt.Library>
libRbt.so (2013.1, Build901 2013/11/27)

>  <Rbt.Parameter_File>
/home/malgorzata/Desktop/rDock_2013.1_src/data/scripts/dock.prm

>  <Rbt.Receptor>
cavity.prm

>  <SCORE>
-10.9294

>  <SCORE.INTER>
-12.6507

>  <SCORE.INTER.CONST>
1

>  <SCORE.INTER.POLAR>
0

>  <SCORE.INTER.REPUL>
0

>  <SCORE.INTER.ROT>
6

>  <SCORE.INTER.VDW>
-24.0507

>  <SCORE.INTER.norm>
-0.57503

>  <SCORE.INTRA>
1.06655

>  <SCORE.INTRA.DIHEDRAL>
-2.04198

>  <SCORE.INTRA.DIHEDRAL.0>
11.8882

>  <SCORE.INTRA.POLAR>
0

>  <SCORE.INTRA.POLAR.0>
0

>  <SCORE.INTRA.REPUL>
0

>  <SCORE.INTRA.REPUL.0>
0

>  <SCORE.INTRA.VDW>
2.08754

>  <SCORE.INTRA.VDW.0>
-3.04122

>  <SCORE.INTRA.norm>
0.0484794

>  <SCORE.RESTR>
0

>  <SCORE.RESTR.CAVITY>
0

>  <SCORE.RESTR.norm>
0

>  <SCORE.SYSTEM>
0.654688

>  <SCORE.SYSTEM.CONST>
0

>  <SCORE.SYSTEM.DIHEDRAL>
0.613095

>  <SCORE.SYSTEM.VDW>
0.34814

>  <SCORE.SYSTEM.norm>
0.0297585

>  <SCORE.heavy>
22

>  <SCORE.norm>
-0.496792

$$$$
