HMD.pdb
  rDOCK(R)          3D
libRbt.so/2013.1/901 2013/11/27
 24 26  0  0  0  0  0  0  0  0999 V2000
   -3.0611   34.1962   12.3036 Br  0  0  0  0  0  0
   -5.6829   29.5313   12.1006 O   0  0  0  0  0  0
   -0.8187   28.1794    6.7863 O   0  0  0  0  0  0
   -3.9666   31.6118   11.8802 N   0  0  0  0  0  0
   -4.2879   28.0817   11.0065 N   0  0  0  0  0  0
    0.5568   30.0214    6.7136 N   0  0  0  0  0  0
   -0.4579   31.3014    8.2543 N   0  0  0  0  0  0
    1.4405   32.1480    7.2123 N   0  0  0  0  0  0
   -3.1446   32.5641   11.4339 C   0  0  0  0  0  0
   -2.4501   32.1430   10.3381 C   0  0  0  0  0  0
   -2.8688   30.8081   10.0898 C   0  0  0  0  0  0
   -3.8409   30.5190   11.0967 C   0  0  0  0  0  0
   -4.6586   29.3447   11.4306 C   0  0  0  0  0  0
   -3.1121   27.6936   10.2087 C   0  0  0  0  0  0
   -2.9977   28.4476    8.8962 C   0  0  0  0  0  0
   -2.3202   29.8069    9.0454 C   0  0  0  0  0  0
   -1.2133   30.1192    8.2488 C   0  0  0  0  0  0
   -0.4997   29.3126    7.1782 C   0  0  0  0  0  0
    0.5561   31.1832    7.3775 C   0  0  0  0  0  0
   -4.5676   31.6930   12.6556 H   0  0  0  0  0  0
   -4.8871   27.3472   11.2720 H   0  0  0  0  0  0
   -0.6408   32.0923    8.8113 H   0  0  0  0  0  0
    2.1737   32.0381    6.5645 H   0  0  0  0  0  0
    1.3672   32.9780    7.7367 H   0  0  0  0  0  0
  1  9  1  0  0  0
  2 13  2  0  0  0
  3 18  2  0  0  0
  4  9  1  0  0  0
  4 12  1  0  0  0
  4 20  1  0  0  0
  5 13  1  0  0  0
  5 14  1  0  0  0
  5 21  1  0  0  0
  6 18  1  0  0  0
  6 19  2  0  0  0
  7 17  1  0  0  0
  7 19  1  0  0  0
  7 22  1  0  0  0
  8 19  1  0  0  0
  8 23  1  0  0  0
  8 24  1  0  0  0
  9 10  2  0  0  0
 10 11  1  0  0  0
 11 12  2  0  0  0
 11 16  1  0  0  0
 12 13  1  0  0  0
 14 15  1  0  0  0
 15 16  1  0  0  0
 16 17  2  0  0  0
 17 18  1  0  0  0
M  END
>  <CHROM.0>
3.86403933,22.33223600,-149.97175645,122.65223572,174.43551427,-61.11066012

>  <CHROM.1>
-2.41550383,31.13189757,10.11347580,-2.24278990,-0.72111849,-2.68576003

>  <FORMUL>
      HMD    C11 H10 Br1 N5 O2

>  <HET>
 HMD  A 400      19

>  <HETNAM>
     HMD 4-(5-AMINO-4-OXO-4H-PYRAZOL-3-YL)-2-BROMO-4,5,6,7-TETRA
   2 HMD HYDRO-3AH-PYRROLO[2,3-C]AZEPIN-8-ONE

>  <HETSYN>
     HMD HYMENIALDISINE

>  <Name>
HMD.pdb

>  <RI>
8.07027e+06

>  <Rbt.Current_Directory>
/home/malgorzata/Desktop/rDOCK_IFD/test2

>  <Rbt.Executable>
rbdock ($Id: //depot/dev/client3/rdock/2013.1/src/exe/rbdock.cxx#4 $)

>  <Rbt.Library>
libRbt.so (2013.1, Build901 2013/11/27)

>  <Rbt.Parameter_File>
/home/malgorzata/Desktop/rDock_2013.1_src/data/scripts/soft_docking.prm

>  <Rbt.Receptor>
cavity.prm

>  <SCORE>
-29.4222

>  <SCORE.INTER>
-30.5183

>  <SCORE.INTER.CONST>
1

>  <SCORE.INTER.POLAR>
-0.750445

>  <SCORE.INTER.REPUL>
0

>  <SCORE.INTER.ROT>
0

>  <SCORE.INTER.VDW>
-33.3667

>  <SCORE.INTER.norm>
-1.60622

>  <SCORE.INTRA>
0

>  <SCORE.INTRA.DIHEDRAL>
0

>  <SCORE.INTRA.DIHEDRAL.0>
0

>  <SCORE.INTRA.POLAR>
0

>  <SCORE.INTRA.POLAR.0>
0

>  <SCORE.INTRA.REPUL>
0

>  <SCORE.INTRA.REPUL.0>
0

>  <SCORE.INTRA.VDW>
0

>  <SCORE.INTRA.VDW.0>
0

>  <SCORE.INTRA.norm>
0

>  <SCORE.RESTR>
0

>  <SCORE.RESTR.CAVITY>
0

>  <SCORE.RESTR.norm>
0

>  <SCORE.SYSTEM>
1.09609

>  <SCORE.SYSTEM.CONST>
0

>  <SCORE.SYSTEM.DIHEDRAL>
2.0233

>  <SCORE.SYSTEM.POLAR>
-0.619677

>  <SCORE.SYSTEM.REPUL>
0.8

>  <SCORE.SYSTEM.VDW>
-1.80866

>  <SCORE.SYSTEM.norm>
0.0576888

>  <SCORE.heavy>
19

>  <SCORE.norm>
-1.54854

$$$$
HMD.pdb
  rDOCK(R)          3D
libRbt.so/2013.1/901 2013/11/27
 24 26  0  0  0  0  0  0  0  0999 V2000
   -2.8876   34.0589   12.3677 Br  0  0  0  0  0  0
   -5.2579   29.2626   12.1368 O   0  0  0  0  0  0
   -0.6397   28.3701    6.5149 O   0  0  0  0  0  0
   -3.6732   31.4433   11.8993 N   0  0  0  0  0  0
   -3.8507   27.9324   10.9140 N   0  0  0  0  0  0
    0.6267   30.2885    6.4348 N   0  0  0  0  0  0
   -0.3664   31.4558    8.0757 N   0  0  0  0  0  0
    1.4200   32.4435    6.9626 N   0  0  0  0  0  0
   -2.9315   32.4552   11.4439 C   0  0  0  0  0  0
   -2.2790   32.1117   10.2964 C   0  0  0  0  0  0
   -2.6377   30.7645   10.0223 C   0  0  0  0  0  0
   -3.5331   30.3866   11.0699 C   0  0  0  0  0  0
   -4.2650   29.1572   11.4046 C   0  0  0  0  0  0
   -2.7031   27.6389   10.0386 C   0  0  0  0  0  0
   -2.7055   28.4425    8.7507 C   0  0  0  0  0  0
   -2.0959   29.8321    8.9126 C   0  0  0  0  0  0
   -1.0552   30.2335    8.0681 C   0  0  0  0  0  0
   -0.3611   29.5056    6.9304 C   0  0  0  0  0  0
    0.6006   31.4251    7.1404 C   0  0  0  0  0  0
   -4.2324   31.4639   12.7093 H   0  0  0  0  0  0
   -4.3928   27.1565   11.1848 H   0  0  0  0  0  0
   -0.5600   32.2156    8.6711 H   0  0  0  0  0  0
    2.1198   32.3974    6.2716 H   0  0  0  0  0  0
    1.3317   33.2497    7.5208 H   0  0  0  0  0  0
  1  9  1  0  0  0
  2 13  2  0  0  0
  3 18  2  0  0  0
  4  9  1  0  0  0
  4 12  1  0  0  0
  4 20  1  0  0  0
  5 13  1  0  0  0
  5 14  1  0  0  0
  5 21  1  0  0  0
  6 18  1  0  0  0
  6 19  2  0  0  0
  7 17  1  0  0  0
  7 19  1  0  0  0
  7 22  1  0  0  0
  8 19  1  0  0  0
  8 23  1  0  0  0
  8 24  1  0  0  0
  9 10  2  0  0  0
 10 11  1  0  0  0
 11 12  2  0  0  0
 11 16  1  0  0  0
 12 13  1  0  0  0
 14 15  1  0  0  0
 15 16  1  0  0  0
 16 17  2  0  0  0
 17 18  1  0  0  0
M  END
>  <CHROM.0>
-19.73669521,118.73369348,-38.84374329,36.91480782,173.36132220,-61.11066012

>  <CHROM.1>
-2.20208361,31.11241963,10.03283267,-2.27688147,-0.79642964,-2.67355876

>  <FORMUL>
      HMD    C11 H10 Br1 N5 O2

>  <HET>
 HMD  A 400      19

>  <HETNAM>
     HMD 4-(5-AMINO-4-OXO-4H-PYRAZOL-3-YL)-2-BROMO-4,5,6,7-TETRA
   2 HMD HYDRO-3AH-PYRROLO[2,3-C]AZEPIN-8-ONE

>  <HETSYN>
     HMD HYMENIALDISINE

>  <Name>
HMD.pdb

>  <RI>
8.07027e+06

>  <Rbt.Current_Directory>
/home/malgorzata/Desktop/rDOCK_IFD/test2

>  <Rbt.Executable>
rbdock ($Id: //depot/dev/client3/rdock/2013.1/src/exe/rbdock.cxx#4 $)

>  <Rbt.Library>
libRbt.so (2013.1, Build901 2013/11/27)

>  <Rbt.Parameter_File>
/home/malgorzata/Desktop/rDock_2013.1_src/data/scripts/soft_docking.prm

>  <Rbt.Receptor>
cavity.prm

>  <SCORE>
-28.8208

>  <SCORE.INTER>
-29.8345

>  <SCORE.INTER.CONST>
1

>  <SCORE.INTER.POLAR>
-0.54187

>  <SCORE.INTER.REPUL>
0

>  <SCORE.INTER.ROT>
0

>  <SCORE.INTER.VDW>
-33.3922

>  <SCORE.INTER.norm>
-1.57024

>  <SCORE.INTRA>
0

>  <SCORE.INTRA.DIHEDRAL>
0

>  <SCORE.INTRA.DIHEDRAL.0>
0

>  <SCORE.INTRA.POLAR>
0

>  <SCORE.INTRA.POLAR.0>
0

>  <SCORE.INTRA.REPUL>
0

>  <SCORE.INTRA.REPUL.0>
0

>  <SCORE.INTRA.VDW>
0

>  <SCORE.INTRA.VDW.0>
0

>  <SCORE.INTRA.norm>
0

>  <SCORE.RESTR>
0

>  <SCORE.RESTR.CAVITY>
0

>  <SCORE.RESTR.norm>
0

>  <SCORE.SYSTEM>
1.01378

>  <SCORE.SYSTEM.CONST>
0

>  <SCORE.SYSTEM.DIHEDRAL>
2.02649

>  <SCORE.SYSTEM.POLAR>
-0.619677

>  <SCORE.SYSTEM.REPUL>
0.8

>  <SCORE.SYSTEM.VDW>
-1.89256

>  <SCORE.SYSTEM.norm>
0.053357

>  <SCORE.heavy>
19

>  <SCORE.norm>
-1.51688

$$$$
HMD.pdb
  rDOCK(R)          3D
libRbt.so/2013.1/901 2013/11/27
 24 26  0  0  0  0  0  0  0  0999 V2000
   -2.6057   34.5672   12.8788 Br  0  0  0  0  0  0
   -5.7432   30.2401   13.2074 O   0  0  0  0  0  0
   -2.7582   28.8193    6.6652 O   0  0  0  0  0  0
   -3.9094   32.1373   12.6069 N   0  0  0  0  0  0
   -4.9005   28.7450   11.6911 N   0  0  0  0  0  0
   -1.2377   30.5043    6.2919 N   0  0  0  0  0  0
   -1.6153   31.7542    8.1186 N   0  0  0  0  0  0
    0.0089   32.4767    6.6199 N   0  0  0  0  0  0
   -3.1315   33.0301   11.9911 C   0  0  0  0  0  0
   -2.8276   32.6289   10.7233 C   0  0  0  0  0  0
   -3.4626   31.3711   10.5406 C   0  0  0  0  0  0
   -4.1445   31.1053   11.7680 C   0  0  0  0  0  0
   -4.9774   30.0012   12.2643 C   0  0  0  0  0  0
   -4.0512   28.3009   10.5726 C   0  0  0  0  0  0
   -4.2129   29.1437    9.3204 C   0  0  0  0  0  0
   -3.3560   30.4064    9.3356 C   0  0  0  0  0  0
   -2.4842   30.6634    8.2719 C   0  0  0  0  0  0
   -2.2034   29.8761    7.0041 C   0  0  0  0  0  0
   -0.9082   31.6012    6.9839 C   0  0  0  0  0  0
   -4.2560   32.2181   13.5248 H   0  0  0  0  0  0
   -5.4894   28.0591   12.0808 H   0  0  0  0  0  0
   -1.5355   32.5116    8.7424 H   0  0  0  0  0  0
    0.5132   32.3430    5.7850 H   0  0  0  0  0  0
    0.1889   33.2639    7.1830 H   0  0  0  0  0  0
  1  9  1  0  0  0
  2 13  2  0  0  0
  3 18  2  0  0  0
  4  9  1  0  0  0
  4 12  1  0  0  0
  4 20  1  0  0  0
  5 13  1  0  0  0
  5 14  1  0  0  0
  5 21  1  0  0  0
  6 18  1  0  0  0
  6 19  2  0  0  0
  7 17  1  0  0  0
  7 19  1  0  0  0
  7 22  1  0  0  0
  8 19  1  0  0  0
  8 23  1  0  0  0
  8 24  1  0  0  0
  9 10  2  0  0  0
 10 11  1  0  0  0
 11 12  2  0  0  0
 11 16  1  0  0  0
 12 13  1  0  0  0
 14 15  1  0  0  0
 15 16  1  0  0  0
 16 17  2  0  0  0
 17 18  1  0  0  0
M  END
>  <CHROM.0>
-34.20070015,-136.90566140,113.04459971,-176.42585311,-165.51958550,-61.11066012

>  <CHROM.1>
-2.98373702,31.64177746,10.44936051,-1.86204613,-0.88657778,-2.34210666

>  <FORMUL>
      HMD    C11 H10 Br1 N5 O2

>  <HET>
 HMD  A 400      19

>  <HETNAM>
     HMD 4-(5-AMINO-4-OXO-4H-PYRAZOL-3-YL)-2-BROMO-4,5,6,7-TETRA
   2 HMD HYDRO-3AH-PYRROLO[2,3-C]AZEPIN-8-ONE

>  <HETSYN>
     HMD HYMENIALDISINE

>  <Name>
HMD.pdb

>  <RI>
8.07027e+06

>  <Rbt.Current_Directory>
/home/malgorzata/Desktop/rDOCK_IFD/test2

>  <Rbt.Executable>
rbdock ($Id: //depot/dev/client3/rdock/2013.1/src/exe/rbdock.cxx#4 $)

>  <Rbt.Library>
libRbt.so (2013.1, Build901 2013/11/27)

>  <Rbt.Parameter_File>
/home/malgorzata/Desktop/rDock_2013.1_src/data/scripts/soft_docking.prm

>  <Rbt.Receptor>
cavity.prm

>  <SCORE>
-29.8724

>  <SCORE.INTER>
-31.097

>  <SCORE.INTER.CONST>
1

>  <SCORE.INTER.POLAR>
-0.596589

>  <SCORE.INTER.REPUL>
0

>  <SCORE.INTER.ROT>
0

>  <SCORE.INTER.VDW>
-34.4686

>  <SCORE.INTER.norm>
-1.63669

>  <SCORE.INTRA>
0

>  <SCORE.INTRA.DIHEDRAL>
0

>  <SCORE.INTRA.DIHEDRAL.0>
0

>  <SCORE.INTRA.POLAR>
0

>  <SCORE.INTRA.POLAR.0>
0

>  <SCORE.INTRA.REPUL>
0

>  <SCORE.INTRA.REPUL.0>
0

>  <SCORE.INTRA.VDW>
0

>  <SCORE.INTRA.VDW.0>
0

>  <SCORE.INTRA.norm>
0

>  <SCORE.RESTR>
0.163077

>  <SCORE.RESTR.CAVITY>
0.163077

>  <SCORE.RESTR.norm>
0.00858299

>  <SCORE.SYSTEM>
1.06162

>  <SCORE.SYSTEM.CONST>
0

>  <SCORE.SYSTEM.DIHEDRAL>
2.03075

>  <SCORE.SYSTEM.POLAR>
-0.521881

>  <SCORE.SYSTEM.REPUL>
0.8

>  <SCORE.SYSTEM.VDW>
-2.17936

>  <SCORE.SYSTEM.norm>
0.0558747

>  <SCORE.heavy>
19

>  <SCORE.norm>
-1.57223

$$$$
HMD.pdb
  rDOCK(R)          3D
libRbt.so/2013.1/901 2013/11/27
 24 26  0  0  0  0  0  0  0  0999 V2000
    1.2009   25.0453    7.7204 Br  0  0  0  0  0  0
    0.8996   30.1163    6.0263 O   0  0  0  0  0  0
   -4.6595   30.3221   10.7997 O   0  0  0  0  0  0
    0.7017   27.7388    7.3035 N   0  0  0  0  0  0
   -0.3119   31.2320    7.6176 N   0  0  0  0  0  0
   -4.7067   28.2491   11.7950 N   0  0  0  0  0  0
   -3.0721   27.2426   10.6302 N   0  0  0  0  0  0
   -4.1513   26.0114   12.2812 N   0  0  0  0  0  0
    0.2648   26.6315    7.9072 C   0  0  0  0  0  0
   -0.8753   26.8727    8.6160 C   0  0  0  0  0  0
   -1.1647   28.2534    8.4473 C   0  0  0  0  0  0
   -0.1332   28.7590    7.5971 C   0  0  0  0  0  0
    0.1815   30.0793    7.0343 C   0  0  0  0  0  0
   -1.1723   31.3590    8.8063 C   0  0  0  0  0  0
   -2.4542   30.5513    8.7126 C   0  0  0  0  0  0
   -2.2730   29.0934    9.1257 C   0  0  0  0  0  0
   -3.0989   28.5468   10.1138 C   0  0  0  0  0  0
   -4.2315   29.1633   10.9158 C   0  0  0  0  0  0
   -3.9931   27.1331   11.6052 C   0  0  0  0  0  0
    1.5034   27.8017    6.7357 H   0  0  0  0  0  0
   -0.0549   32.0767    7.1822 H   0  0  0  0  0  0
   -2.4741   26.5216   10.3271 H   0  0  0  0  0  0
   -4.8321   25.9558   12.9902 H   0  0  0  0  0  0
   -3.5886   25.2299   12.0766 H   0  0  0  0  0  0
  1  9  1  0  0  0
  2 13  2  0  0  0
  3 18  2  0  0  0
  4  9  1  0  0  0
  4 12  1  0  0  0
  4 20  1  0  0  0
  5 13  1  0  0  0
  5 14  1  0  0  0
  5 21  1  0  0  0
  6 18  1  0  0  0
  6 19  2  0  0  0
  7 17  1  0  0  0
  7 19  1  0  0  0
  7 22  1  0  0  0
  8 19  1  0  0  0
  8 23  1  0  0  0
  8 24  1  0  0  0
  9 10  2  0  0  0
 10 11  1  0  0  0
 11 12  2  0  0  0
 11 16  1  0  0  0
 12 13  1  0  0  0
 14 15  1  0  0  0
 15 16  1  0  0  0
 16 17  2  0  0  0
 17 18  1  0  0  0
M  END
>  <CHROM.0>
-62.26235265,172.29269873,-156.99810692,162.04109653,132.72442407,-61.11066012

>  <CHROM.1>
-1.14507694,27.84978928,8.83141129,0.23280267,-0.68449440,2.85176179

>  <FORMUL>
      HMD    C11 H10 Br1 N5 O2

>  <HET>
 HMD  A 400      19

>  <HETNAM>
     HMD 4-(5-AMINO-4-OXO-4H-PYRAZOL-3-YL)-2-BROMO-4,5,6,7-TETRA
   2 HMD HYDRO-3AH-PYRROLO[2,3-C]AZEPIN-8-ONE

>  <HETSYN>
     HMD HYMENIALDISINE

>  <Name>
HMD.pdb

>  <RI>
8.07027e+06

>  <Rbt.Current_Directory>
/home/malgorzata/Desktop/rDOCK_IFD/test2

>  <Rbt.Executable>
rbdock ($Id: //depot/dev/client3/rdock/2013.1/src/exe/rbdock.cxx#4 $)

>  <Rbt.Library>
libRbt.so (2013.1, Build901 2013/11/27)

>  <Rbt.Parameter_File>
/home/malgorzata/Desktop/rDock_2013.1_src/data/scripts/soft_docking.prm

>  <Rbt.Receptor>
cavity.prm

>  <SCORE>
-24.0455

>  <SCORE.INTER>
-24.8474

>  <SCORE.INTER.CONST>
1

>  <SCORE.INTER.POLAR>
-1.28879

>  <SCORE.INTER.REPUL>
0

>  <SCORE.INTER.ROT>
0

>  <SCORE.INTER.VDW>
-25.8655

>  <SCORE.INTER.norm>
-1.30776

>  <SCORE.INTRA>
0

>  <SCORE.INTRA.DIHEDRAL>
0

>  <SCORE.INTRA.DIHEDRAL.0>
0

>  <SCORE.INTRA.POLAR>
0

>  <SCORE.INTRA.POLAR.0>
0

>  <SCORE.INTRA.REPUL>
0

>  <SCORE.INTRA.REPUL.0>
0

>  <SCORE.INTRA.VDW>
0

>  <SCORE.INTRA.VDW.0>
0

>  <SCORE.INTRA.norm>
0

>  <SCORE.RESTR>
0

>  <SCORE.RESTR.CAVITY>
0

>  <SCORE.RESTR.norm>
0

>  <SCORE.SYSTEM>
0.801864

>  <SCORE.SYSTEM.CONST>
0

>  <SCORE.SYSTEM.DIHEDRAL>
2.02578

>  <SCORE.SYSTEM.POLAR>
-0.6009

>  <SCORE.SYSTEM.REPUL>
0.8

>  <SCORE.SYSTEM.VDW>
-2.16797

>  <SCORE.SYSTEM.norm>
0.0422034

>  <SCORE.heavy>
19

>  <SCORE.norm>
-1.26555

$$$$
HMD.pdb
  rDOCK(R)          3D
libRbt.so/2013.1/901 2013/11/27
 24 26  0  0  0  0  0  0  0  0999 V2000
    2.9028   27.5717   12.8829 Br  0  0  0  0  0  0
   -1.7373   25.3385   14.3523 O   0  0  0  0  0  0
   -4.3317   29.5982    8.9807 O   0  0  0  0  0  0
    0.3075   26.6369   13.1458 N   0  0  0  0  0  0
   -3.1699   25.6701   12.5966 N   0  0  0  0  0  0
   -2.4952   30.6328    8.0602 N   0  0  0  0  0  0
   -0.9022   29.8508    9.4360 N   0  0  0  0  0  0
   -0.2550   31.2786    7.7188 N   0  0  0  0  0  0
    1.0846   27.5348   12.5363 C   0  0  0  0  0  0
    0.3585   28.3267   11.6959 C   0  0  0  0  0  0
   -0.9850   27.8725   11.7822 C   0  0  0  0  0  0
   -0.9655   26.7982   12.7244 C   0  0  0  0  0  0
   -1.9835   25.8911   13.2720 C   0  0  0  0  0  0
   -3.6131   26.2451   11.3151 C   0  0  0  0  0  0
   -3.5853   27.7627   11.2927 C   0  0  0  0  0  0
   -2.2096   28.3300   10.9544 C   0  0  0  0  0  0
   -2.0768   29.2395    9.8997 C   0  0  0  0  0  0
   -3.1118   29.8236    8.9543 C   0  0  0  0  0  0
   -1.1931   30.6165    8.3683 C   0  0  0  0  0  0
    0.6131   25.9653   13.7974 H   0  0  0  0  0  0
   -3.7994   25.0482   13.0280 H   0  0  0  0  0  0
   -0.0069   29.7376    9.8296 H   0  0  0  0  0  0
   -0.4926   31.8324    6.9403 H   0  0  0  0  0  0
    0.6827   31.2190    8.0127 H   0  0  0  0  0  0
  1  9  1  0  0  0
  2 13  2  0  0  0
  3 18  2  0  0  0
  4  9  1  0  0  0
  4 12  1  0  0  0
  4 20  1  0  0  0
  5 13  1  0  0  0
  5 14  1  0  0  0
  5 21  1  0  0  0
  6 18  1  0  0  0
  6 19  2  0  0  0
  7 17  1  0  0  0
  7 19  1  0  0  0
  7 22  1  0  0  0
  8 19  1  0  0  0
  8 23  1  0  0  0
  8 24  1  0  0  0
  9 10  2  0  0  0
 10 11  1  0  0  0
 11 12  2  0  0  0
 11 16  1  0  0  0
 12 13  1  0  0  0
 14 15  1  0  0  0
 15 16  1  0  0  0
 16 17  2  0  0  0
 17 18  1  0  0  0
M  END
>  <CHROM.0>
146.49531901,33.98845078,156.56403976,-75.64730589,171.62000496,-61.11066012

>  <CHROM.1>
-0.59591335,28.03455676,11.41718115,-0.80635599,-0.20037870,-0.81225975

>  <FORMUL>
      HMD    C11 H10 Br1 N5 O2

>  <HET>
 HMD  A 400      19

>  <HETNAM>
     HMD 4-(5-AMINO-4-OXO-4H-PYRAZOL-3-YL)-2-BROMO-4,5,6,7-TETRA
   2 HMD HYDRO-3AH-PYRROLO[2,3-C]AZEPIN-8-ONE

>  <HETSYN>
     HMD HYMENIALDISINE

>  <Name>
HMD.pdb

>  <RI>
8.07027e+06

>  <Rbt.Current_Directory>
/home/malgorzata/Desktop/rDOCK_IFD/test2

>  <Rbt.Executable>
rbdock ($Id: //depot/dev/client3/rdock/2013.1/src/exe/rbdock.cxx#4 $)

>  <Rbt.Library>
libRbt.so (2013.1, Build901 2013/11/27)

>  <Rbt.Parameter_File>
/home/malgorzata/Desktop/rDock_2013.1_src/data/scripts/soft_docking.prm

>  <Rbt.Receptor>
cavity.prm

>  <SCORE>
-26.6669

>  <SCORE.INTER>
-27.6311

>  <SCORE.INTER.CONST>
1

>  <SCORE.INTER.POLAR>
-1.35623

>  <SCORE.INTER.REPUL>
0

>  <SCORE.INTER.ROT>
0

>  <SCORE.INTER.VDW>
-28.4199

>  <SCORE.INTER.norm>
-1.45427

>  <SCORE.INTRA>
0

>  <SCORE.INTRA.DIHEDRAL>
0

>  <SCORE.INTRA.DIHEDRAL.0>
0

>  <SCORE.INTRA.POLAR>
0

>  <SCORE.INTRA.POLAR.0>
0

>  <SCORE.INTRA.REPUL>
0

>  <SCORE.INTRA.REPUL.0>
0

>  <SCORE.INTRA.VDW>
0

>  <SCORE.INTRA.VDW.0>
0

>  <SCORE.INTRA.norm>
0

>  <SCORE.RESTR>
0

>  <SCORE.RESTR.CAVITY>
0

>  <SCORE.RESTR.norm>
0

>  <SCORE.SYSTEM>
0.964118

>  <SCORE.SYSTEM.CONST>
0

>  <SCORE.SYSTEM.DIHEDRAL>
2.02502

>  <SCORE.SYSTEM.POLAR>
-0.619677

>  <SCORE.SYSTEM.REPUL>
0.8

>  <SCORE.SYSTEM.VDW>
-1.94149

>  <SCORE.SYSTEM.norm>
0.050743

>  <SCORE.heavy>
19

>  <SCORE.norm>
-1.40352

$$$$
HMD.pdb
  rDOCK(R)          3D
libRbt.so/2013.1/901 2013/11/27
 24 26  0  0  0  0  0  0  0  0999 V2000
   -4.3562   25.4301   11.6632 Br  0  0  0  0  0  0
   -1.0581   27.3558    7.9095 O   0  0  0  0  0  0
   -3.1433   33.7635   10.7944 O   0  0  0  0  0  0
   -2.6967   26.9197   10.0184 N   0  0  0  0  0  0
   -0.5669   29.4979    8.5536 N   0  0  0  0  0  0
   -4.5241   33.2364   12.5569 N   0  0  0  0  0  0
   -4.5780   31.0033   12.3292 N   0  0  0  0  0  0
   -5.7855   31.9505   14.0759 N   0  0  0  0  0  0
   -3.6656   26.9853   10.9341 C   0  0  0  0  0  0
   -4.0039   28.2790   11.2030 C   0  0  0  0  0  0
   -3.1630   29.0875   10.3920 C   0  0  0  0  0  0
   -2.3527   28.1729    9.6509 C   0  0  0  0  0  0
   -1.2852   28.3202    8.6519 C   0  0  0  0  0  0
   -0.7127   30.7270    9.3519 C   0  0  0  0  0  0
   -2.1236   31.2871    9.3455 C   0  0  0  0  0  0
   -3.0320   30.6292   10.3804 C   0  0  0  0  0  0
   -3.7179   31.4252   11.3042 C   0  0  0  0  0  0
   -3.7435   32.9318   11.4927 C   0  0  0  0  0  0
   -4.9904   32.0751   13.0306 C   0  0  0  0  0  0
   -2.2973   26.0912    9.6674 H   0  0  0  0  0  0
    0.1320   29.5171    7.8606 H   0  0  0  0  0  0
   -4.8386   30.0707   12.5071 H   0  0  0  0  0  0
   -6.0738   32.7499   14.5731 H   0  0  0  0  0  0
   -6.0907   31.0583   14.3586 H   0  0  0  0  0  0
  1  9  1  0  0  0
  2 13  2  0  0  0
  3 18  2  0  0  0
  4  9  1  0  0  0
  4 12  1  0  0  0
  4 20  1  0  0  0
  5 13  1  0  0  0
  5 14  1  0  0  0
  5 21  1  0  0  0
  6 18  1  0  0  0
  6 19  2  0  0  0
  7 17  1  0  0  0
  7 19  1  0  0  0
  7 22  1  0  0  0
  8 19  1  0  0  0
  8 23  1  0  0  0
  8 24  1  0  0  0
  9 10  2  0  0  0
 10 11  1  0  0  0
 11 12  2  0  0  0
 11 16  1  0  0  0
 12 13  1  0  0  0
 14 15  1  0  0  0
 15 16  1  0  0  0
 16 17  2  0  0  0
 17 18  1  0  0  0
M  END
>  <CHROM.0>
-138.14699894,-172.30619733,80.34706708,-156.53703300,-179.53797292,-61.11066012

>  <CHROM.1>
-3.37034072,29.04403146,10.90771815,1.52789316,-0.80701894,-3.04976877

>  <FORMUL>
      HMD    C11 H10 Br1 N5 O2

>  <HET>
 HMD  A 400      19

>  <HETNAM>
     HMD 4-(5-AMINO-4-OXO-4H-PYRAZOL-3-YL)-2-BROMO-4,5,6,7-TETRA
   2 HMD HYDRO-3AH-PYRROLO[2,3-C]AZEPIN-8-ONE

>  <HETSYN>
     HMD HYMENIALDISINE

>  <Name>
HMD.pdb

>  <RI>
8.07027e+06

>  <Rbt.Current_Directory>
/home/malgorzata/Desktop/rDOCK_IFD/test2

>  <Rbt.Executable>
rbdock ($Id: //depot/dev/client3/rdock/2013.1/src/exe/rbdock.cxx#4 $)

>  <Rbt.Library>
libRbt.so (2013.1, Build901 2013/11/27)

>  <Rbt.Parameter_File>
/home/malgorzata/Desktop/rDock_2013.1_src/data/scripts/soft_docking.prm

>  <Rbt.Receptor>
cavity.prm

>  <SCORE>
-22.9825

>  <SCORE.INTER>
-23.8953

>  <SCORE.INTER.CONST>
1

>  <SCORE.INTER.POLAR>
-0.798212

>  <SCORE.INTER.REPUL>
0

>  <SCORE.INTER.ROT>
0

>  <SCORE.INTER.VDW>
-26.5814

>  <SCORE.INTER.norm>
-1.25765

>  <SCORE.INTRA>
0

>  <SCORE.INTRA.DIHEDRAL>
0

>  <SCORE.INTRA.DIHEDRAL.0>
0

>  <SCORE.INTRA.POLAR>
0

>  <SCORE.INTRA.POLAR.0>
0

>  <SCORE.INTRA.REPUL>
0

>  <SCORE.INTRA.REPUL.0>
0

>  <SCORE.INTRA.VDW>
0

>  <SCORE.INTRA.VDW.0>
0

>  <SCORE.INTRA.norm>
0

>  <SCORE.RESTR>
0

>  <SCORE.RESTR.CAVITY>
0

>  <SCORE.RESTR.norm>
0

>  <SCORE.SYSTEM>
0.91276

>  <SCORE.SYSTEM.CONST>
0

>  <SCORE.SYSTEM.DIHEDRAL>
2.0273

>  <SCORE.SYSTEM.POLAR>
-0.595113

>  <SCORE.SYSTEM.REPUL>
0.8

>  <SCORE.SYSTEM.VDW>
-2.07751

>  <SCORE.SYSTEM.norm>
0.04804

>  <SCORE.heavy>
19

>  <SCORE.norm>
-1.20961

$$$$
HMD.pdb
  rDOCK(R)          3D
libRbt.so/2013.1/901 2013/11/27
 24 26  0  0  0  0  0  0  0  0999 V2000
   -5.7860   33.0492   13.9054 Br  0  0  0  0  0  0
   -2.0042   32.3831   10.1730 O   0  0  0  0  0  0
   -3.8621   25.3391   10.9858 O   0  0  0  0  0  0
   -4.0534   32.1739   11.9280 N   0  0  0  0  0  0
   -2.3780   30.3108    9.2727 N   0  0  0  0  0  0
   -5.5961   25.3197   12.4968 N   0  0  0  0  0  0
   -5.6721   27.5066   13.0003 N   0  0  0  0  0  0
   -7.1998   26.0948   14.0394 N   0  0  0  0  0  0
   -4.8934   31.7849   12.8895 C   0  0  0  0  0  0
   -4.9632   30.4247   12.9635 C   0  0  0  0  0  0
   -4.1001   29.9259   11.9511 C   0  0  0  0  0  0
   -3.5393   31.0809   11.3237 C   0  0  0  0  0  0
   -2.5937   31.2953   10.2196 C   0  0  0  0  0  0
   -2.9914   28.9745    9.1871 C   0  0  0  0  0  0
   -2.8263   28.1524   10.4526 C   0  0  0  0  0  0
   -3.8863   28.4593   11.5067 C   0  0  0  0  0  0
   -4.6513   27.4174   12.0420 C   0  0  0  0  0  0
   -4.6309   25.9246   11.7640 C   0  0  0  0  0  0
   -6.1956   26.2839   13.2049 C   0  0  0  0  0  0
   -3.8425   33.1073   11.6965 H   0  0  0  0  0  0
   -1.7309   30.5316    8.5644 H   0  0  0  0  0  0
   -5.9599   28.3329   13.4516 H   0  0  0  0  0  0
   -7.5657   25.1906   14.1724 H   0  0  0  0  0  0
   -7.5831   26.8580   14.5291 H   0  0  0  0  0  0
  1  9  1  0  0  0
  2 13  2  0  0  0
  3 18  2  0  0  0
  4  9  1  0  0  0
  4 12  1  0  0  0
  4 20  1  0  0  0
  5 13  1  0  0  0
  5 14  1  0  0  0
  5 21  1  0  0  0
  6 18  1  0  0  0
  6 19  2  0  0  0
  7 17  1  0  0  0
  7 19  1  0  0  0
  7 22  1  0  0  0
  8 19  1  0  0  0
  8 23  1  0  0  0
  8 24  1  0  0  0
  9 10  2  0  0  0
 10 11  1  0  0  0
 11 12  2  0  0  0
 11 16  1  0  0  0
 12 13  1  0  0  0
 14 15  1  0  0  0
 15 16  1  0  0  0
 16 17  2  0  0  0
 17 18  1  0  0  0
M  END
>  <CHROM.0>
-79.21393646,9.83140213,-123.34231583,-0.19452505,167.62534412,-61.11066012

>  <CHROM.1>
-4.60398262,29.85192522,12.17811123,1.59401826,0.82125807,0.15445417

>  <FORMUL>
      HMD    C11 H10 Br1 N5 O2

>  <HET>
 HMD  A 400      19

>  <HETNAM>
     HMD 4-(5-AMINO-4-OXO-4H-PYRAZOL-3-YL)-2-BROMO-4,5,6,7-TETRA
   2 HMD HYDRO-3AH-PYRROLO[2,3-C]AZEPIN-8-ONE

>  <HETSYN>
     HMD HYMENIALDISINE

>  <Name>
HMD.pdb

>  <RI>
8.07027e+06

>  <Rbt.Current_Directory>
/home/malgorzata/Desktop/rDOCK_IFD/test2

>  <Rbt.Executable>
rbdock ($Id: //depot/dev/client3/rdock/2013.1/src/exe/rbdock.cxx#4 $)

>  <Rbt.Library>
libRbt.so (2013.1, Build901 2013/11/27)

>  <Rbt.Parameter_File>
/home/malgorzata/Desktop/rDock_2013.1_src/data/scripts/soft_docking.prm

>  <Rbt.Receptor>
cavity.prm

>  <SCORE>
-28.0006

>  <SCORE.INTER>
-29.1152

>  <SCORE.INTER.CONST>
1

>  <SCORE.INTER.POLAR>
-1.26477

>  <SCORE.INTER.REPUL>
0

>  <SCORE.INTER.ROT>
0

>  <SCORE.INTER.VDW>
-30.215

>  <SCORE.INTER.norm>
-1.53238

>  <SCORE.INTRA>
0

>  <SCORE.INTRA.DIHEDRAL>
0

>  <SCORE.INTRA.DIHEDRAL.0>
0

>  <SCORE.INTRA.POLAR>
0

>  <SCORE.INTRA.POLAR.0>
0

>  <SCORE.INTRA.REPUL>
0

>  <SCORE.INTRA.REPUL.0>
0

>  <SCORE.INTRA.VDW>
0

>  <SCORE.INTRA.VDW.0>
0

>  <SCORE.INTRA.norm>
0

>  <SCORE.RESTR>
0

>  <SCORE.RESTR.CAVITY>
0

>  <SCORE.RESTR.norm>
0

>  <SCORE.SYSTEM>
1.1146

>  <SCORE.SYSTEM.CONST>
0

>  <SCORE.SYSTEM.DIHEDRAL>
2.02652

>  <SCORE.SYSTEM.POLAR>
-0.619677

>  <SCORE.SYSTEM.REPUL>
0.8

>  <SCORE.SYSTEM.VDW>
-1.79175

>  <SCORE.SYSTEM.norm>
0.0586633

>  <SCORE.heavy>
19

>  <SCORE.norm>
-1.47371

$$$$
HMD.pdb
  rDOCK(R)          3D
libRbt.so/2013.1/901 2013/11/27
 24 26  0  0  0  0  0  0  0  0999 V2000
   -1.8164   34.1226   12.9092 Br  0  0  0  0  0  0
   -5.7522   30.5272   12.3999 O   0  0  0  0  0  0
   -1.9621   28.7223    6.3910 O   0  0  0  0  0  0
   -3.5019   32.0231   12.2538 N   0  0  0  0  0  0
   -4.9585   28.9376   10.9550 N   0  0  0  0  0  0
   -0.0970   30.0682    6.3998 N   0  0  0  0  0  0
   -0.5478   31.3126    8.2136 N   0  0  0  0  0  0
    1.4330   31.7303    7.0698 N   0  0  0  0  0  0
   -2.4640   32.7548   11.8429 C   0  0  0  0  0  0
   -2.0188   32.3385   10.6226 C   0  0  0  0  0  0
   -2.8452   31.2448   10.2490 C   0  0  0  0  0  0
   -3.7787   31.0879   11.3196 C   0  0  0  0  0  0
   -4.8895   30.1646   11.5893 C   0  0  0  0  0  0
   -4.0238   28.3624    9.9727 C   0  0  0  0  0  0
   -3.7844   29.2582    8.7709 C   0  0  0  0  0  0
   -2.7127   30.3161    9.0185 C   0  0  0  0  0  0
   -1.6280   30.4203    8.1410 C   0  0  0  0  0  0
   -1.2812   29.6312    6.8908 C   0  0  0  0  0  0
    0.3103   31.0519    7.2104 C   0  0  0  0  0  0
   -3.9875   32.1454   13.1014 H   0  0  0  0  0  0
   -5.7322   28.3763   11.1903 H   0  0  0  0  0  0
   -0.4355   32.0179    8.8913 H   0  0  0  0  0  0
    2.0449   31.5210    6.3274 H   0  0  0  0  0  0
    1.6588   32.4458    7.7071 H   0  0  0  0  0  0
  1  9  1  0  0  0
  2 13  2  0  0  0
  3 18  2  0  0  0
  4  9  1  0  0  0
  4 12  1  0  0  0
  4 20  1  0  0  0
  5 13  1  0  0  0
  5 14  1  0  0  0
  5 21  1  0  0  0
  6 18  1  0  0  0
  6 19  2  0  0  0
  7 17  1  0  0  0
  7 19  1  0  0  0
  7 22  1  0  0  0
  8 19  1  0  0  0
  8 23  1  0  0  0
  8 24  1  0  0  0
  9 10  2  0  0  0
 10 11  1  0  0  0
 11 12  2  0  0  0
 11 16  1  0  0  0
 12 13  1  0  0  0
 14 15  1  0  0  0
 15 16  1  0  0  0
 16 17  2  0  0  0
 17 18  1  0  0  0
M  END
>  <CHROM.0>
-131.79423354,130.13538937,-43.09926338,-115.40879812,-47.42701828,-61.11066012

>  <CHROM.1>
-2.31389926,31.41356841,10.26017704,-1.85404565,-0.61436320,-2.28681332

>  <FORMUL>
      HMD    C11 H10 Br1 N5 O2

>  <HET>
 HMD  A 400      19

>  <HETNAM>
     HMD 4-(5-AMINO-4-OXO-4H-PYRAZOL-3-YL)-2-BROMO-4,5,6,7-TETRA
   2 HMD HYDRO-3AH-PYRROLO[2,3-C]AZEPIN-8-ONE

>  <HETSYN>
     HMD HYMENIALDISINE

>  <Name>
HMD.pdb

>  <RI>
8.07027e+06

>  <Rbt.Current_Directory>
/home/malgorzata/Desktop/rDOCK_IFD/test2

>  <Rbt.Executable>
rbdock ($Id: //depot/dev/client3/rdock/2013.1/src/exe/rbdock.cxx#4 $)

>  <Rbt.Library>
libRbt.so (2013.1, Build901 2013/11/27)

>  <Rbt.Parameter_File>
/home/malgorzata/Desktop/rDock_2013.1_src/data/scripts/soft_docking.prm

>  <Rbt.Receptor>
cavity.prm

>  <SCORE>
-23.4539

>  <SCORE.INTER>
-26.8243

>  <SCORE.INTER.CONST>
1

>  <SCORE.INTER.POLAR>
-0.0239303

>  <SCORE.INTER.REPUL>
0

>  <SCORE.INTER.ROT>
0

>  <SCORE.INTER.VDW>
-32.143

>  <SCORE.INTER.norm>
-1.41181

>  <SCORE.INTRA>
0

>  <SCORE.INTRA.DIHEDRAL>
0

>  <SCORE.INTRA.DIHEDRAL.0>
0

>  <SCORE.INTRA.POLAR>
0

>  <SCORE.INTRA.POLAR.0>
0

>  <SCORE.INTRA.REPUL>
0

>  <SCORE.INTRA.REPUL.0>
0

>  <SCORE.INTRA.VDW>
0

>  <SCORE.INTRA.VDW.0>
0

>  <SCORE.INTRA.norm>
0

>  <SCORE.RESTR>
0.153992

>  <SCORE.RESTR.CAVITY>
0.153992

>  <SCORE.RESTR.norm>
0.00810483

>  <SCORE.SYSTEM>
3.21646

>  <SCORE.SYSTEM.CONST>
0

>  <SCORE.SYSTEM.DIHEDRAL>
2.02517

>  <SCORE.SYSTEM.REPUL>
0.8

>  <SCORE.SYSTEM.VDW>
-1.79613

>  <SCORE.SYSTEM.norm>
0.169287

>  <SCORE.heavy>
19

>  <SCORE.norm>
-1.23442

$$$$
HMD.pdb
  rDOCK(R)          3D
libRbt.so/2013.1/901 2013/11/27
 24 26  0  0  0  0  0  0  0  0999 V2000
   -2.5272   34.1124   12.7290 Br  0  0  0  0  0  0
   -5.3367   29.5538   12.7710 O   0  0  0  0  0  0
   -1.3328   28.2083    6.7804 O   0  0  0  0  0  0
   -3.5866   31.5778   12.3665 N   0  0  0  0  0  0
   -4.1702   28.0928   11.4484 N   0  0  0  0  0  0
    0.0915   30.0013    6.5639 N   0  0  0  0  0  0
   -0.6424   31.2643    8.2693 N   0  0  0  0  0  0
    1.1217   32.0770    6.9911 N   0  0  0  0  0  0
   -2.7986   32.5145   11.8344 C   0  0  0  0  0  0
   -2.2838   32.1060   10.6392 C   0  0  0  0  0  0
   -2.7869   30.7961   10.4158 C   0  0  0  0  0  0
   -3.6173   30.5082   11.5426 C   0  0  0  0  0  0
   -4.4260   29.3533   11.9566 C   0  0  0  0  0  0
   -3.1358   27.6900   10.4803 C   0  0  0  0  0  0
   -3.1783   28.4832    9.1867 C   0  0  0  0  0  0
   -2.4325   29.8116    9.2758 C   0  0  0  0  0  0
   -1.4378   30.1107    8.3384 C   0  0  0  0  0  0
   -0.9162   29.3156    7.1545 C   0  0  0  0  0  0
    0.2316   31.1394    7.2537 C   0  0  0  0  0  0
   -4.0680   31.6543   13.2219 H   0  0  0  0  0  0
   -4.7548   27.3717   11.7760 H   0  0  0  0  0  0
   -0.7126   32.0420    8.8688 H   0  0  0  0  0  0
    1.7508   31.9627    6.2424 H   0  0  0  0  0  0
    1.1569   32.8909    7.5439 H   0  0  0  0  0  0
  1  9  1  0  0  0
  2 13  2  0  0  0
  3 18  2  0  0  0
  4  9  1  0  0  0
  4 12  1  0  0  0
  4 20  1  0  0  0
  5 13  1  0  0  0
  5 14  1  0  0  0
  5 21  1  0  0  0
  6 18  1  0  0  0
  6 19  2  0  0  0
  7 17  1  0  0  0
  7 19  1  0  0  0
  7 22  1  0  0  0
  8 19  1  0  0  0
  8 23  1  0  0  0
  8 24  1  0  0  0
  9 10  2  0  0  0
 10 11  1  0  0  0
 11 12  2  0  0  0
 11 16  1  0  0  0
 12 13  1  0  0  0
 14 15  1  0  0  0
 15 16  1  0  0  0
 16 17  2  0  0  0
 17 18  1  0  0  0
M  END
>  <CHROM.0>
118.65499594,151.16293268,-103.21217175,77.03622905,-168.07503794,-61.11066012

>  <CHROM.1>
-2.32208197,31.10242574,10.38352899,-2.09699198,-0.82606100,-2.55254792

>  <FORMUL>
      HMD    C11 H10 Br1 N5 O2

>  <HET>
 HMD  A 400      19

>  <HETNAM>
     HMD 4-(5-AMINO-4-OXO-4H-PYRAZOL-3-YL)-2-BROMO-4,5,6,7-TETRA
   2 HMD HYDRO-3AH-PYRROLO[2,3-C]AZEPIN-8-ONE

>  <HETSYN>
     HMD HYMENIALDISINE

>  <Name>
HMD.pdb

>  <RI>
8.07027e+06

>  <Rbt.Current_Directory>
/home/malgorzata/Desktop/rDOCK_IFD/test2

>  <Rbt.Executable>
rbdock ($Id: //depot/dev/client3/rdock/2013.1/src/exe/rbdock.cxx#4 $)

>  <Rbt.Library>
libRbt.so (2013.1, Build901 2013/11/27)

>  <Rbt.Parameter_File>
/home/malgorzata/Desktop/rDock_2013.1_src/data/scripts/soft_docking.prm

>  <Rbt.Receptor>
cavity.prm

>  <SCORE>
-26.8852

>  <SCORE.INTER>
-27.9416

>  <SCORE.INTER.CONST>
1

>  <SCORE.INTER.POLAR>
-0.441937

>  <SCORE.INTER.REPUL>
0

>  <SCORE.INTER.ROT>
0

>  <SCORE.INTER.VDW>
-31.839

>  <SCORE.INTER.norm>
-1.47061

>  <SCORE.INTRA>
0

>  <SCORE.INTRA.DIHEDRAL>
0

>  <SCORE.INTRA.DIHEDRAL.0>
0

>  <SCORE.INTRA.POLAR>
0

>  <SCORE.INTRA.POLAR.0>
0

>  <SCORE.INTRA.REPUL>
0

>  <SCORE.INTRA.REPUL.0>
0

>  <SCORE.INTRA.VDW>
0

>  <SCORE.INTRA.VDW.0>
0

>  <SCORE.INTRA.norm>
0

>  <SCORE.RESTR>
0

>  <SCORE.RESTR.CAVITY>
0

>  <SCORE.RESTR.norm>
0

>  <SCORE.SYSTEM>
1.05638

>  <SCORE.SYSTEM.CONST>
0

>  <SCORE.SYSTEM.DIHEDRAL>
2.02277

>  <SCORE.SYSTEM.POLAR>
-0.535295

>  <SCORE.SYSTEM.REPUL>
0.8

>  <SCORE.SYSTEM.VDW>
-2.135

>  <SCORE.SYSTEM.norm>
0.0555991

>  <SCORE.heavy>
19

>  <SCORE.norm>
-1.41501

$$$$
HMD.pdb
  rDOCK(R)          3D
libRbt.so/2013.1/901 2013/11/27
 24 26  0  0  0  0  0  0  0  0999 V2000
    2.8440   28.1297   12.8819 Br  0  0  0  0  0  0
   -1.5129   25.3782   14.3389 O   0  0  0  0  0  0
   -4.4342   28.9333    8.6330 O   0  0  0  0  0  0
    0.3876   26.8696   13.1197 N   0  0  0  0  0  0
   -2.9057   25.4120   12.5213 N   0  0  0  0  0  0
   -2.7163   30.1519    7.7089 N   0  0  0  0  0  0
   -1.0897   29.6725    9.1807 N   0  0  0  0  0  0
   -0.5700   31.0738    7.3995 N   0  0  0  0  0  0
    1.0621   27.8278   12.4806 C   0  0  0  0  0  0
    0.2713   28.4647   11.5699 C   0  0  0  0  0  0
   -1.0022   27.8390   11.6415 C   0  0  0  0  0  0
   -0.8777   26.8330   12.6489 C   0  0  0  0  0  0
   -1.7871   25.8296   13.2191 C   0  0  0  0  0  0
   -3.3700   25.8474   11.1931 C   0  0  0  0  0  0
   -3.5433   27.3511   11.0773 C   0  0  0  0  0  0
   -2.2428   28.0786   10.7483 C   0  0  0  0  0  0
   -2.1901   28.9358    9.6438 C   0  0  0  0  0  0
   -3.2551   29.3195    8.6315 C   0  0  0  0  0  0
   -1.4369   30.3293    8.0586 C   0  0  0  0  0  0
    0.7535   26.2839   13.8212 H   0  0  0  0  0  0
   -3.4637   24.7365   12.9703 H   0  0  0  0  0  0
   -0.2037   29.7040    9.6088 H   0  0  0  0  0  0
   -0.8479   31.5448    6.5808 H   0  0  0  0  0  0
    0.3548   31.1583    7.7262 H   0  0  0  0  0  0
  1  9  1  0  0  0
  2 13  2  0  0  0
  3 18  2  0  0  0
  4  9  1  0  0  0
  4 12  1  0  0  0
  4 20  1  0  0  0
  5 13  1  0  0  0
  5 14  1  0  0  0
  5 21  1  0  0  0
  6 18  1  0  0  0
  6 19  2  0  0  0
  7 17  1  0  0  0
  7 19  1  0  0  0
  7 22  1  0  0  0
  8 19  1  0  0  0
  8 23  1  0  0  0
  8 24  1  0  0  0
  9 10  2  0  0  0
 10 11  1  0  0  0
 11 12  2  0  0  0
 11 16  1  0  0  0
 12 13  1  0  0  0
 14 15  1  0  0  0
 15 16  1  0  0  0
 16 17  2  0  0  0
 17 18  1  0  0  0
M  END
>  <CHROM.0>
-107.06325619,90.85588539,104.52264581,-48.85821265,-165.01112802,-61.11066012

>  <CHROM.1>
-0.62391290,28.03090476,11.27967003,-0.74038600,-0.32418875,-0.85520907

>  <FORMUL>
      HMD    C11 H10 Br1 N5 O2

>  <HET>
 HMD  A 400      19

>  <HETNAM>
     HMD 4-(5-AMINO-4-OXO-4H-PYRAZOL-3-YL)-2-BROMO-4,5,6,7-TETRA
   2 HMD HYDRO-3AH-PYRROLO[2,3-C]AZEPIN-8-ONE

>  <HETSYN>
     HMD HYMENIALDISINE

>  <Name>
HMD.pdb

>  <RI>
8.07027e+06

>  <Rbt.Current_Directory>
/home/malgorzata/Desktop/rDOCK_IFD/test2

>  <Rbt.Executable>
rbdock ($Id: //depot/dev/client3/rdock/2013.1/src/exe/rbdock.cxx#4 $)

>  <Rbt.Library>
libRbt.so (2013.1, Build901 2013/11/27)

>  <Rbt.Parameter_File>
/home/malgorzata/Desktop/rDock_2013.1_src/data/scripts/soft_docking.prm

>  <Rbt.Receptor>
cavity.prm

>  <SCORE>
-24.6321

>  <SCORE.INTER>
-25.88

>  <SCORE.INTER.CONST>
1

>  <SCORE.INTER.POLAR>
-1.26485

>  <SCORE.INTER.REPUL>
0

>  <SCORE.INTER.ROT>
0

>  <SCORE.INTER.VDW>
-26.9795

>  <SCORE.INTER.norm>
-1.36211

>  <SCORE.INTRA>
0

>  <SCORE.INTRA.DIHEDRAL>
0

>  <SCORE.INTRA.DIHEDRAL.0>
0

>  <SCORE.INTRA.POLAR>
0

>  <SCORE.INTRA.POLAR.0>
0

>  <SCORE.INTRA.REPUL>
0

>  <SCORE.INTRA.REPUL.0>
0

>  <SCORE.INTRA.VDW>
0

>  <SCORE.INTRA.VDW.0>
0

>  <SCORE.INTRA.norm>
0

>  <SCORE.RESTR>
0

>  <SCORE.RESTR.CAVITY>
0

>  <SCORE.RESTR.norm>
0

>  <SCORE.SYSTEM>
1.24798

>  <SCORE.SYSTEM.CONST>
0

>  <SCORE.SYSTEM.DIHEDRAL>
2.03576

>  <SCORE.SYSTEM.POLAR>
-0.519219

>  <SCORE.SYSTEM.REPUL>
0.8

>  <SCORE.SYSTEM.VDW>
-2.00456

>  <SCORE.SYSTEM.norm>
0.065683

>  <SCORE.heavy>
19

>  <SCORE.norm>
-1.29642

$$$$
