HMD.pdb
  rDOCK(R)          3D
libRbt.so/2013.1/901 2013/11/27
 24 26  0  0  0  0  0  0  0  0999 V2000
   -2.4743   34.1901   12.8529 Br  0  0  0  0  0  0
   -5.4831   29.7790   12.4460 O   0  0  0  0  0  0
   -1.1470   28.5719    6.6606 O   0  0  0  0  0  0
   -3.6201   31.7342   12.2751 N   0  0  0  0  0  0
   -4.2967   28.3379   11.1192 N   0  0  0  0  0  0
    0.3682   30.3023    6.6423 N   0  0  0  0  0  0
   -0.4220   31.5036    8.3670 N   0  0  0  0  0  0
    1.4596   32.2984    7.2560 N   0  0  0  0  0  0
   -2.7563   32.6592   11.8510 C   0  0  0  0  0  0
   -2.1807   32.2925   10.6700 C   0  0  0  0  0  0
   -2.7260   31.0231   10.3383 C   0  0  0  0  0  0
   -3.6430   30.7144   11.3899 C   0  0  0  0  0  0
   -4.5292   29.5794   11.6823 C   0  0  0  0  0  0
   -3.2183   27.9390   10.1987 C   0  0  0  0  0  0
   -3.1371   28.8035    8.9535 C   0  0  0  0  0  0
   -2.3399   30.0869    9.1684 C   0  0  0  0  0  0
   -1.2715   30.3883    8.3168 C   0  0  0  0  0  0
   -0.7072   29.6351    7.1250 C   0  0  0  0  0  0
    0.5123   31.3924    7.4049 C   0  0  0  0  0  0
   -4.1544   31.7868   13.1002 H   0  0  0  0  0  0
   -4.9341   27.6293   11.3655 H   0  0  0  0  0  0
   -0.4975   32.2496    9.0050 H   0  0  0  0  0  0
    2.1322   32.1950    6.5445 H   0  0  0  0  0  0
    1.4940   33.0779    7.8564 H   0  0  0  0  0  0
  1  9  1  0  0  0
  2 13  2  0  0  0
  3 18  2  0  0  0
  4  9  1  0  0  0
  4 12  1  0  0  0
  4 20  1  0  0  0
  5 13  1  0  0  0
  5 14  1  0  0  0
  5 21  1  0  0  0
  6 18  1  0  0  0
  6 19  2  0  0  0
  7 17  1  0  0  0
  7 19  1  0  0  0
  7 22  1  0  0  0
  8 19  1  0  0  0
  8 23  1  0  0  0
  8 24  1  0  0  0
  9 10  2  0  0  0
 10 11  1  0  0  0
 11 12  2  0  0  0
 11 16  1  0  0  0
 12 13  1  0  0  0
 14 15  1  0  0  0
 15 16  1  0  0  0
 16 17  2  0  0  0
 17 18  1  0  0  0
M  END
>  <CHROM.0>
-65.25739350,-155.86858668,90.33806707,105.05964361,175.77471307,-61.11066012

>  <CHROM.1>
-2.24672265,31.30768808,10.35430210,-2.09720325,-0.74453362,-2.49582521

>  <FORMUL>
      HMD    C11 H10 Br1 N5 O2

>  <HET>
 HMD  A 400      19

>  <HETNAM>
     HMD 4-(5-AMINO-4-OXO-4H-PYRAZOL-3-YL)-2-BROMO-4,5,6,7-TETRA
   2 HMD HYDRO-3AH-PYRROLO[2,3-C]AZEPIN-8-ONE

>  <HETSYN>
     HMD HYMENIALDISINE

>  <Name>
HMD.pdb

>  <RI>
3.55094e+07

>  <Rbt.Current_Directory>
/home/malgorzata/Desktop/rDOCK_IFD/Wyniki/2a_CDK2

>  <Rbt.Executable>
rbdock ($Id: //depot/dev/client3/rdock/2013.1/src/exe/rbdock.cxx#4 $)

>  <Rbt.Library>
libRbt.so (2013.1, Build901 2013/11/27)

>  <Rbt.Parameter_File>
/home/malgorzata/Desktop/rDock_2013.1_src/data/scripts/soft_docking.prm

>  <Rbt.Receptor>
cavity.prm

>  <SCORE>
-29.5297

>  <SCORE.INTER>
-30.1986

>  <SCORE.INTER.CONST>
1

>  <SCORE.INTER.POLAR>
-0.379256

>  <SCORE.INTER.REPUL>
0

>  <SCORE.INTER.ROT>
0

>  <SCORE.INTER.VDW>
-34.3092

>  <SCORE.INTER.norm>
-1.5894

>  <SCORE.INTRA>
0

>  <SCORE.INTRA.DIHEDRAL>
0

>  <SCORE.INTRA.DIHEDRAL.0>
0

>  <SCORE.INTRA.POLAR>
0

>  <SCORE.INTRA.POLAR.0>
0

>  <SCORE.INTRA.REPUL>
0

>  <SCORE.INTRA.REPUL.0>
0

>  <SCORE.INTRA.VDW>
0

>  <SCORE.INTRA.VDW.0>
0

>  <SCORE.INTRA.norm>
0

>  <SCORE.RESTR>
0

>  <SCORE.RESTR.CAVITY>
0

>  <SCORE.RESTR.norm>
0

>  <SCORE.SYSTEM>
0.668923

>  <SCORE.SYSTEM.CONST>
0

>  <SCORE.SYSTEM.DIHEDRAL>
2.03288

>  <SCORE.SYSTEM.POLAR>
-0.618352

>  <SCORE.SYSTEM.REPUL>
0.8

>  <SCORE.SYSTEM.VDW>
-2.24512

>  <SCORE.SYSTEM.norm>
0.0352065

>  <SCORE.heavy>
19

>  <SCORE.norm>
-1.5542

$$$$
HMD.pdb
  rDOCK(R)          3D
libRbt.so/2013.1/901 2013/11/27
 24 26  0  0  0  0  0  0  0  0999 V2000
   -2.7660   34.6539   12.8656 Br  0  0  0  0  0  0
   -5.8643   30.2984   13.1916 O   0  0  0  0  0  0
   -2.2082   28.4744    7.1059 O   0  0  0  0  0  0
   -4.0035   32.1847   12.6421 N   0  0  0  0  0  0
   -4.8518   28.7162   11.8817 N   0  0  0  0  0  0
   -0.6795   30.1590    6.7657 N   0  0  0  0  0  0
   -1.2580   31.5284    8.4486 N   0  0  0  0  0  0
    0.5014   32.1748    7.0726 N   0  0  0  0  0  0
   -3.1784   33.0469   12.0442 C   0  0  0  0  0  0
   -2.7414   32.5623   10.8465 C   0  0  0  0  0  0
   -3.3380   31.2820   10.6931 C   0  0  0  0  0  0
   -4.1382   31.0908   11.8616 C   0  0  0  0  0  0
   -5.0032   30.0083   12.3507 C   0  0  0  0  0  0
   -3.8870   28.2106   10.8902 C   0  0  0  0  0  0
   -3.9307   28.9582    9.5698 C   0  0  0  0  0  0
   -3.0963   30.2359    9.5789 C   0  0  0  0  0  0
   -2.1238   30.4339    8.5928 C   0  0  0  0  0  0
   -1.7047   29.5639    7.4209 C   0  0  0  0  0  0
   -0.4367   31.3090    7.4053 C   0  0  0  0  0  0
   -4.4431   32.3238   13.5119 H   0  0  0  0  0  0
   -5.4684   28.0481   12.2591 H   0  0  0  0  0  0
   -1.2521   32.3299    9.0201 H   0  0  0  0  0  0
    1.0901   31.9920    6.3050 H   0  0  0  0  0  0
    0.6127   33.0037    7.5920 H   0  0  0  0  0  0
  1  9  1  0  0  0
  2 13  2  0  0  0
  3 18  2  0  0  0
  4  9  1  0  0  0
  4 12  1  0  0  0
  4 20  1  0  0  0
  5 13  1  0  0  0
  5 14  1  0  0  0
  5 21  1  0  0  0
  6 18  1  0  0  0
  6 19  2  0  0  0
  7 17  1  0  0  0
  7 19  1  0  0  0
  7 22  1  0  0  0
  8 19  1  0  0  0
  8 23  1  0  0  0
  8 24  1  0  0  0
  9 10  2  0  0  0
 10 11  1  0  0  0
 11 12  2  0  0  0
 11 16  1  0  0  0
 12 13  1  0  0  0
 14 15  1  0  0  0
 15 16  1  0  0  0
 16 17  2  0  0  0
 17 18  1  0  0  0
M  END
>  <CHROM.0>
-137.63105980,-10.22346185,-40.12910835,-86.01970772,158.38419117,-61.11066012

>  <CHROM.1>
-2.85586725,31.55511270,10.63114954,-1.98308651,-0.82072512,-2.50604553

>  <FORMUL>
      HMD    C11 H10 Br1 N5 O2

>  <HET>
 HMD  A 400      19

>  <HETNAM>
     HMD 4-(5-AMINO-4-OXO-4H-PYRAZOL-3-YL)-2-BROMO-4,5,6,7-TETRA
   2 HMD HYDRO-3AH-PYRROLO[2,3-C]AZEPIN-8-ONE

>  <HETSYN>
     HMD HYMENIALDISINE

>  <Name>
HMD.pdb

>  <RI>
3.55094e+07

>  <Rbt.Current_Directory>
/home/malgorzata/Desktop/rDOCK_IFD/Wyniki/2a_CDK2

>  <Rbt.Executable>
rbdock ($Id: //depot/dev/client3/rdock/2013.1/src/exe/rbdock.cxx#4 $)

>  <Rbt.Library>
libRbt.so (2013.1, Build901 2013/11/27)

>  <Rbt.Parameter_File>
/home/malgorzata/Desktop/rDock_2013.1_src/data/scripts/soft_docking.prm

>  <Rbt.Receptor>
cavity.prm

>  <SCORE>
-30.0774

>  <SCORE.INTER>
-31.3442

>  <SCORE.INTER.CONST>
1

>  <SCORE.INTER.POLAR>
-0.542513

>  <SCORE.INTER.REPUL>
0

>  <SCORE.INTER.ROT>
0

>  <SCORE.INTER.VDW>
-34.8997

>  <SCORE.INTER.norm>
-1.6497

>  <SCORE.INTRA>
0

>  <SCORE.INTRA.DIHEDRAL>
0

>  <SCORE.INTRA.DIHEDRAL.0>
0

>  <SCORE.INTRA.POLAR>
0

>  <SCORE.INTRA.POLAR.0>
0

>  <SCORE.INTRA.REPUL>
0

>  <SCORE.INTRA.REPUL.0>
0

>  <SCORE.INTRA.VDW>
0

>  <SCORE.INTRA.VDW.0>
0

>  <SCORE.INTRA.norm>
0

>  <SCORE.RESTR>
0.0671784

>  <SCORE.RESTR.CAVITY>
0.0671784

>  <SCORE.RESTR.norm>
0.00353571

>  <SCORE.SYSTEM>
1.19966

>  <SCORE.SYSTEM.CONST>
0

>  <SCORE.SYSTEM.DIHEDRAL>
2.0281

>  <SCORE.SYSTEM.POLAR>
-0.619677

>  <SCORE.SYSTEM.REPUL>
0.8

>  <SCORE.SYSTEM.VDW>
-1.70749

>  <SCORE.SYSTEM.norm>
0.0631399

>  <SCORE.heavy>
19

>  <SCORE.norm>
-1.58302

$$$$
HMD.pdb
  rDOCK(R)          3D
libRbt.so/2013.1/901 2013/11/27
 24 26  0  0  0  0  0  0  0  0999 V2000
   -2.5413   34.1468   13.0169 Br  0  0  0  0  0  0
   -5.5567   29.7473   12.5396 O   0  0  0  0  0  0
   -1.4040   28.7677    6.5792 O   0  0  0  0  0  0
   -3.7021   31.7117   12.3836 N   0  0  0  0  0  0
   -4.4112   28.3596   11.1229 N   0  0  0  0  0  0
    0.1080   30.5010    6.5783 N   0  0  0  0  0  0
   -0.6286   31.6350    8.3708 N   0  0  0  0  0  0
    1.2161   32.4751    7.2318 N   0  0  0  0  0  0
   -2.8531   32.6539   11.9675 C   0  0  0  0  0  0
   -2.3146   32.3330   10.7561 C   0  0  0  0  0  0
   -2.8688   31.0758   10.3943 C   0  0  0  0  0  0
   -3.7518   30.7258   11.4619 C   0  0  0  0  0  0
   -4.6272   29.5786   11.7392 C   0  0  0  0  0  0
   -3.3620   27.9980   10.1545 C   0  0  0  0  0  0
   -3.3210   28.9087    8.9408 C   0  0  0  0  0  0
   -2.5188   30.1849    9.1785 C   0  0  0  0  0  0
   -1.4781   30.5204    8.3056 C   0  0  0  0  0  0
   -0.9509   29.8138    7.0692 C   0  0  0  0  0  0
    0.2750   31.5621    7.3763 C   0  0  0  0  0  0
   -4.2102   31.7322   13.2266 H   0  0  0  0  0  0
   -5.0398   27.6408   11.3623 H   0  0  0  0  0  0
   -0.6847   32.3563    9.0385 H   0  0  0  0  0  0
    1.8660   32.4000    6.4961 H   0  0  0  0  0  0
    1.2686   33.2316    7.8596 H   0  0  0  0  0  0
  1  9  1  0  0  0
  2 13  2  0  0  0
  3 18  2  0  0  0
  4  9  1  0  0  0
  4 12  1  0  0  0
  4 20  1  0  0  0
  5 13  1  0  0  0
  5 14  1  0  0  0
  5 21  1  0  0  0
  6 18  1  0  0  0
  6 19  2  0  0  0
  7 17  1  0  0  0
  7 19  1  0  0  0
  7 22  1  0  0  0
  8 19  1  0  0  0
  8 23  1  0  0  0
  8 24  1  0  0  0
  9 10  2  0  0  0
 10 11  1  0  0  0
 11 12  2  0  0  0
 11 16  1  0  0  0
 12 13  1  0  0  0
 14 15  1  0  0  0
 15 16  1  0  0  0
 16 17  2  0  0  0
 17 18  1  0  0  0
M  END
>  <CHROM.0>
136.23195110,-94.84885333,-163.73263721,36.02234661,137.59845441,-61.11066012

>  <CHROM.1>
-2.38956602,31.36060369,10.40587294,-2.07192556,-0.77021129,-2.44090856

>  <FORMUL>
      HMD    C11 H10 Br1 N5 O2

>  <HET>
 HMD  A 400      19

>  <HETNAM>
     HMD 4-(5-AMINO-4-OXO-4H-PYRAZOL-3-YL)-2-BROMO-4,5,6,7-TETRA
   2 HMD HYDRO-3AH-PYRROLO[2,3-C]AZEPIN-8-ONE

>  <HETSYN>
     HMD HYMENIALDISINE

>  <Name>
HMD.pdb

>  <RI>
3.55094e+07

>  <Rbt.Current_Directory>
/home/malgorzata/Desktop/rDOCK_IFD/Wyniki/2a_CDK2

>  <Rbt.Executable>
rbdock ($Id: //depot/dev/client3/rdock/2013.1/src/exe/rbdock.cxx#4 $)

>  <Rbt.Library>
libRbt.so (2013.1, Build901 2013/11/27)

>  <Rbt.Parameter_File>
/home/malgorzata/Desktop/rDock_2013.1_src/data/scripts/soft_docking.prm

>  <Rbt.Receptor>
cavity.prm

>  <SCORE>
-28.7613

>  <SCORE.INTER>
-29.7595

>  <SCORE.INTER.CONST>
1

>  <SCORE.INTER.POLAR>
-0.459063

>  <SCORE.INTER.REPUL>
0

>  <SCORE.INTER.ROT>
0

>  <SCORE.INTER.VDW>
-33.5987

>  <SCORE.INTER.norm>
-1.56629

>  <SCORE.INTRA>
0

>  <SCORE.INTRA.DIHEDRAL>
0

>  <SCORE.INTRA.DIHEDRAL.0>
0

>  <SCORE.INTRA.POLAR>
0

>  <SCORE.INTRA.POLAR.0>
0

>  <SCORE.INTRA.REPUL>
0

>  <SCORE.INTRA.REPUL.0>
0

>  <SCORE.INTRA.VDW>
0

>  <SCORE.INTRA.VDW.0>
0

>  <SCORE.INTRA.norm>
0

>  <SCORE.RESTR>
0

>  <SCORE.RESTR.CAVITY>
0

>  <SCORE.RESTR.norm>
0

>  <SCORE.SYSTEM>
0.998175

>  <SCORE.SYSTEM.CONST>
0

>  <SCORE.SYSTEM.DIHEDRAL>
2.02421

>  <SCORE.SYSTEM.POLAR>
-0.619677

>  <SCORE.SYSTEM.REPUL>
0.8

>  <SCORE.SYSTEM.VDW>
-1.90703

>  <SCORE.SYSTEM.norm>
0.0525355

>  <SCORE.heavy>
19

>  <SCORE.norm>
-1.51375

$$$$
HMD.pdb
  rDOCK(R)          3D
libRbt.so/2013.1/901 2013/11/27
 24 26  0  0  0  0  0  0  0  0999 V2000
   -3.3240   33.6599   13.0402 Br  0  0  0  0  0  0
   -5.5616   28.9141   11.9697 O   0  0  0  0  0  0
   -1.0191   29.1994    6.2239 O   0  0  0  0  0  0
   -4.0435   31.1496   12.1136 N   0  0  0  0  0  0
   -4.1391   27.8719   10.5086 N   0  0  0  0  0  0
    0.1910   31.1388    6.4786 N   0  0  0  0  0  0
   -0.8059   31.9577    8.3163 N   0  0  0  0  0  0
    0.9322   33.1858    7.3798 N   0  0  0  0  0  0
   -3.3388   32.2498   11.8408 C   0  0  0  0  0  0
   -2.6970   32.1405   10.6422 C   0  0  0  0  0  0
   -3.0222   30.8549   10.1320 C   0  0  0  0  0  0
   -3.8882   30.2658   11.1043 C   0  0  0  0  0  0
   -4.5791   28.9740   11.2187 C   0  0  0  0  0  0
   -2.9992   27.7777    9.5805 C   0  0  0  0  0  0
   -3.0467   28.8011    8.4603 C   0  0  0  0  0  0
   -2.4739   30.1565    8.8648 C   0  0  0  0  0  0
   -1.4598   30.7364    8.0949 C   0  0  0  0  0  0
   -0.7655   30.2487    6.8355 C   0  0  0  0  0  0
    0.1451   32.1272    7.3794 C   0  0  0  0  0  0
   -4.5888   31.0056   12.9205 H   0  0  0  0  0  0
   -4.6541   27.0434   10.6403 H   0  0  0  0  0  0
   -1.0104   32.5906    9.0422 H   0  0  0  0  0  0
    1.6208   33.2875    6.6835 H   0  0  0  0  0  0
    0.8310   33.8742    8.0763 H   0  0  0  0  0  0
  1  9  1  0  0  0
  2 13  2  0  0  0
  3 18  2  0  0  0
  4  9  1  0  0  0
  4 12  1  0  0  0
  4 20  1  0  0  0
  5 13  1  0  0  0
  5 14  1  0  0  0
  5 21  1  0  0  0
  6 18  1  0  0  0
  6 19  2  0  0  0
  7 17  1  0  0  0
  7 19  1  0  0  0
  7 22  1  0  0  0
  8 19  1  0  0  0
  8 23  1  0  0  0
  8 24  1  0  0  0
  9 10  2  0  0  0
 10 11  1  0  0  0
 11 12  2  0  0  0
 11 16  1  0  0  0
 12 13  1  0  0  0
 14 15  1  0  0  0
 15 16  1  0  0  0
 16 17  2  0  0  0
 17 18  1  0  0  0
M  END
>  <CHROM.0>
123.90262481,-160.01949401,58.24450783,-150.61230672,177.79265671,-61.11066012

>  <CHROM.1>
-2.59653883,31.20846896,10.20040395,-2.30236935,-0.82463808,-2.50936507

>  <FORMUL>
      HMD    C11 H10 Br1 N5 O2

>  <HET>
 HMD  A 400      19

>  <HETNAM>
     HMD 4-(5-AMINO-4-OXO-4H-PYRAZOL-3-YL)-2-BROMO-4,5,6,7-TETRA
   2 HMD HYDRO-3AH-PYRROLO[2,3-C]AZEPIN-8-ONE

>  <HETSYN>
     HMD HYMENIALDISINE

>  <Name>
HMD.pdb

>  <RI>
3.55094e+07

>  <Rbt.Current_Directory>
/home/malgorzata/Desktop/rDOCK_IFD/Wyniki/2a_CDK2

>  <Rbt.Executable>
rbdock ($Id: //depot/dev/client3/rdock/2013.1/src/exe/rbdock.cxx#4 $)

>  <Rbt.Library>
libRbt.so (2013.1, Build901 2013/11/27)

>  <Rbt.Parameter_File>
/home/malgorzata/Desktop/rDock_2013.1_src/data/scripts/soft_docking.prm

>  <Rbt.Receptor>
cavity.prm

>  <SCORE>
-26.9637

>  <SCORE.INTER>
-27.7961

>  <SCORE.INTER.CONST>
1

>  <SCORE.INTER.POLAR>
-0.761337

>  <SCORE.INTER.REPUL>
0

>  <SCORE.INTER.ROT>
0

>  <SCORE.INTER.VDW>
-30.6075

>  <SCORE.INTER.norm>
-1.46295

>  <SCORE.INTRA>
0

>  <SCORE.INTRA.DIHEDRAL>
0

>  <SCORE.INTRA.DIHEDRAL.0>
0

>  <SCORE.INTRA.POLAR>
0

>  <SCORE.INTRA.POLAR.0>
0

>  <SCORE.INTRA.REPUL>
0

>  <SCORE.INTRA.REPUL.0>
0

>  <SCORE.INTRA.VDW>
0

>  <SCORE.INTRA.VDW.0>
0

>  <SCORE.INTRA.norm>
0

>  <SCORE.RESTR>
0

>  <SCORE.RESTR.CAVITY>
0

>  <SCORE.RESTR.norm>
0

>  <SCORE.SYSTEM>
0.832388

>  <SCORE.SYSTEM.CONST>
0

>  <SCORE.SYSTEM.DIHEDRAL>
2.0321

>  <SCORE.SYSTEM.POLAR>
-0.608515

>  <SCORE.SYSTEM.REPUL>
0.8

>  <SCORE.SYSTEM.VDW>
-2.11471

>  <SCORE.SYSTEM.norm>
0.0438099

>  <SCORE.heavy>
19

>  <SCORE.norm>
-1.41914

$$$$
HMD.pdb
  rDOCK(R)          3D
libRbt.so/2013.1/901 2013/11/27
 24 26  0  0  0  0  0  0  0  0999 V2000
    0.2130   24.7624    7.2149 Br  0  0  0  0  0  0
   -3.5113   25.3953   11.0103 O   0  0  0  0  0  0
   -2.1339   32.4863    9.7651 O   0  0  0  0  0  0
   -1.7161   25.6395    9.0002 N   0  0  0  0  0  0
   -4.2445   27.5553   10.8072 N   0  0  0  0  0  0
   -0.6011   32.5344    8.0509 N   0  0  0  0  0  0
   -0.2658   30.3292    7.7930 N   0  0  0  0  0  0
    0.9004   31.7797    6.3993 N   0  0  0  0  0  0
   -0.7156   26.0221    8.2039 C   0  0  0  0  0  0
   -0.5365   27.3734    8.2506 C   0  0  0  0  0  0
   -1.5200   27.8748    9.1451 C   0  0  0  0  0  0
   -2.2421   26.7289    9.6006 C   0  0  0  0  0  0
   -3.3729   26.5219   10.5159 C   0  0  0  0  0  0
   -4.2185   28.9412   10.3091 C   0  0  0  0  0  0
   -2.8962   29.6457   10.5535 C   0  0  0  0  0  0
   -1.8536   29.3483    9.4795 C   0  0  0  0  0  0
   -1.2289   30.4062    8.8102 C   0  0  0  0  0  0
   -1.3919   31.9090    8.9554 C   0  0  0  0  0  0
    0.0396   31.5721    7.3771 C   0  0  0  0  0  0
   -2.0215   24.7125    9.1290 H   0  0  0  0  0  0
   -4.9769   27.3364   11.4276 H   0  0  0  0  0  0
    0.1249   29.4976    7.4395 H   0  0  0  0  0  0
    1.1076   32.6985    6.1127 H   0  0  0  0  0  0
    1.3356   31.0158    5.9562 H   0  0  0  0  0  0
  1  9  1  0  0  0
  2 13  2  0  0  0
  3 18  2  0  0  0
  4  9  1  0  0  0
  4 12  1  0  0  0
  4 20  1  0  0  0
  5 13  1  0  0  0
  5 14  1  0  0  0
  5 21  1  0  0  0
  6 18  1  0  0  0
  6 19  2  0  0  0
  7 17  1  0  0  0
  7 19  1  0  0  0
  7 22  1  0  0  0
  8 19  1  0  0  0
  8 23  1  0  0  0
  8 24  1  0  0  0
  9 10  2  0  0  0
 10 11  1  0  0  0
 11 12  2  0  0  0
 11 16  1  0  0  0
 12 13  1  0  0  0
 14 15  1  0  0  0
 15 16  1  0  0  0
 16 17  2  0  0  0
 17 18  1  0  0  0
M  END
>  <CHROM.0>
-4.34757975,60.08993048,153.33288414,-58.82722920,134.34095608,-61.11066012

>  <CHROM.1>
-1.28070878,27.97314543,8.65117727,-1.44305307,0.73237805,0.01321835

>  <FORMUL>
      HMD    C11 H10 Br1 N5 O2

>  <HET>
 HMD  A 400      19

>  <HETNAM>
     HMD 4-(5-AMINO-4-OXO-4H-PYRAZOL-3-YL)-2-BROMO-4,5,6,7-TETRA
   2 HMD HYDRO-3AH-PYRROLO[2,3-C]AZEPIN-8-ONE

>  <HETSYN>
     HMD HYMENIALDISINE

>  <Name>
HMD.pdb

>  <RI>
3.55094e+07

>  <Rbt.Current_Directory>
/home/malgorzata/Desktop/rDOCK_IFD/Wyniki/2a_CDK2

>  <Rbt.Executable>
rbdock ($Id: //depot/dev/client3/rdock/2013.1/src/exe/rbdock.cxx#4 $)

>  <Rbt.Library>
libRbt.so (2013.1, Build901 2013/11/27)

>  <Rbt.Parameter_File>
/home/malgorzata/Desktop/rDock_2013.1_src/data/scripts/soft_docking.prm

>  <Rbt.Receptor>
cavity.prm

>  <SCORE>
-21.9448

>  <SCORE.INTER>
-23.1649

>  <SCORE.INTER.CONST>
1

>  <SCORE.INTER.POLAR>
-0.684384

>  <SCORE.INTER.REPUL>
0

>  <SCORE.INTER.ROT>
0

>  <SCORE.INTER.VDW>
-26.238

>  <SCORE.INTER.norm>
-1.2192

>  <SCORE.INTRA>
0

>  <SCORE.INTRA.DIHEDRAL>
0

>  <SCORE.INTRA.DIHEDRAL.0>
0

>  <SCORE.INTRA.POLAR>
0

>  <SCORE.INTRA.POLAR.0>
0

>  <SCORE.INTRA.REPUL>
0

>  <SCORE.INTRA.REPUL.0>
0

>  <SCORE.INTRA.VDW>
0

>  <SCORE.INTRA.VDW.0>
0

>  <SCORE.INTRA.norm>
0

>  <SCORE.RESTR>
0.042026

>  <SCORE.RESTR.CAVITY>
0.042026

>  <SCORE.RESTR.norm>
0.0022119

>  <SCORE.SYSTEM>
1.17802

>  <SCORE.SYSTEM.CONST>
0

>  <SCORE.SYSTEM.DIHEDRAL>
2.02611

>  <SCORE.SYSTEM.POLAR>
-0.608964

>  <SCORE.SYSTEM.REPUL>
0.8

>  <SCORE.SYSTEM.VDW>
-1.76456

>  <SCORE.SYSTEM.norm>
0.0620011

>  <SCORE.heavy>
19

>  <SCORE.norm>
-1.15499

$$$$
HMD.pdb
  rDOCK(R)          3D
libRbt.so/2013.1/901 2013/11/27
 24 26  0  0  0  0  0  0  0  0999 V2000
    5.2737   27.7181    4.2282 Br  0  0  0  0  0  0
    1.8026   31.7440    4.8757 O   0  0  0  0  0  0
   -1.6564   26.7656    8.9966 O   0  0  0  0  0  0
    3.2694   29.4729    4.9908 N   0  0  0  0  0  0
    0.5722   31.2110    6.7322 N   0  0  0  0  0  0
   -0.3044   24.9048    8.9964 N   0  0  0  0  0  0
    1.2980   25.6123    7.5915 N   0  0  0  0  0  0
    1.5043   23.4801    8.4956 N   0  0  0  0  0  0
    3.6802   28.2037    5.0358 C   0  0  0  0  0  0
    2.7979   27.4233    5.7234 C   0  0  0  0  0  0
    1.7540   28.2860    6.1532 C   0  0  0  0  0  0
    2.0985   29.5804    5.6552 C   0  0  0  0  0  0
    1.4801   30.9110    5.7331 C   0  0  0  0  0  0
    0.0852   30.3409    7.8164 C   0  0  0  0  0  0
   -0.5025   29.0317    7.3216 C   0  0  0  0  0  0
    0.5539   27.9587    7.0734 C   0  0  0  0  0  0
    0.4273   26.7082    7.6879 C   0  0  0  0  0  0
   -0.6387   26.1628    8.6218 C   0  0  0  0  0  0
    0.8472   24.6179    8.3782 C   0  0  0  0  0  0
    3.7435   30.2116    4.5450 H   0  0  0  0  0  0
    0.2038   32.1238    6.7169 H   0  0  0  0  0  0
    2.1101   25.5765    7.0363 H   0  0  0  0  0  0
    1.1542   22.7672    9.0774 H   0  0  0  0  0  0
    2.3446   23.3437    8.0012 H   0  0  0  0  0  0
  1  9  1  0  0  0
  2 13  2  0  0  0
  3 18  2  0  0  0
  4  9  1  0  0  0
  4 12  1  0  0  0
  4 20  1  0  0  0
  5 13  1  0  0  0
  5 14  1  0  0  0
  5 21  1  0  0  0
  6 18  1  0  0  0
  6 19  2  0  0  0
  7 17  1  0  0  0
  7 19  1  0  0  0
  7 22  1  0  0  0
  8 19  1  0  0  0
  8 23  1  0  0  0
  8 24  1  0  0  0
  9 10  2  0  0  0
 10 11  1  0  0  0
 11 12  2  0  0  0
 11 16  1  0  0  0
 12 13  1  0  0  0
 14 15  1  0  0  0
 15 16  1  0  0  0
 16 17  2  0  0  0
 17 18  1  0  0  0
M  END
>  <CHROM.0>
-45.95496965,91.20086041,43.80562267,-175.38213466,157.94613331,-61.11066012

>  <CHROM.1>
2.08328289,27.87050052,6.32604834,-0.57117743,-0.57873003,2.82214252

>  <FORMUL>
      HMD    C11 H10 Br1 N5 O2

>  <HET>
 HMD  A 400      19

>  <HETNAM>
     HMD 4-(5-AMINO-4-OXO-4H-PYRAZOL-3-YL)-2-BROMO-4,5,6,7-TETRA
   2 HMD HYDRO-3AH-PYRROLO[2,3-C]AZEPIN-8-ONE

>  <HETSYN>
     HMD HYMENIALDISINE

>  <Name>
HMD.pdb

>  <RI>
3.55094e+07

>  <Rbt.Current_Directory>
/home/malgorzata/Desktop/rDOCK_IFD/Wyniki/2a_CDK2

>  <Rbt.Executable>
rbdock ($Id: //depot/dev/client3/rdock/2013.1/src/exe/rbdock.cxx#4 $)

>  <Rbt.Library>
libRbt.so (2013.1, Build901 2013/11/27)

>  <Rbt.Parameter_File>
/home/malgorzata/Desktop/rDock_2013.1_src/data/scripts/soft_docking.prm

>  <Rbt.Receptor>
cavity.prm

>  <SCORE>
-24.2043

>  <SCORE.INTER>
-24.9511

>  <SCORE.INTER.CONST>
1

>  <SCORE.INTER.POLAR>
-1.31645

>  <SCORE.INTER.REPUL>
0

>  <SCORE.INTER.ROT>
0

>  <SCORE.INTER.VDW>
-25.8751

>  <SCORE.INTER.norm>
-1.31321

>  <SCORE.INTRA>
0

>  <SCORE.INTRA.DIHEDRAL>
0

>  <SCORE.INTRA.DIHEDRAL.0>
0

>  <SCORE.INTRA.POLAR>
0

>  <SCORE.INTRA.POLAR.0>
0

>  <SCORE.INTRA.REPUL>
0

>  <SCORE.INTRA.REPUL.0>
0

>  <SCORE.INTRA.VDW>
0

>  <SCORE.INTRA.VDW.0>
0

>  <SCORE.INTRA.norm>
0

>  <SCORE.RESTR>
0.0330418

>  <SCORE.RESTR.CAVITY>
0.0330418

>  <SCORE.RESTR.norm>
0.00173904

>  <SCORE.SYSTEM>
0.713744

>  <SCORE.SYSTEM.CONST>
0

>  <SCORE.SYSTEM.DIHEDRAL>
2.02983

>  <SCORE.SYSTEM.POLAR>
-0.619677

>  <SCORE.SYSTEM.REPUL>
0.8

>  <SCORE.SYSTEM.VDW>
-2.19427

>  <SCORE.SYSTEM.norm>
0.0375655

>  <SCORE.heavy>
19

>  <SCORE.norm>
-1.27391

$$$$
HMD.pdb
  rDOCK(R)          3D
libRbt.so/2013.1/901 2013/11/27
 24 26  0  0  0  0  0  0  0  0999 V2000
   -2.7528   34.3592   12.8625 Br  0  0  0  0  0  0
   -5.8626   30.0045   12.6584 O   0  0  0  0  0  0
   -1.2359   28.1855    7.2719 O   0  0  0  0  0  0
   -3.9356   31.8907   12.4315 N   0  0  0  0  0  0
   -4.6445   28.4233   11.5356 N   0  0  0  0  0  0
    0.3285   29.8699    7.1953 N   0  0  0  0  0  0
   -0.5243   31.2377    8.7585 N   0  0  0  0  0  0
    1.4414   31.8850    7.6985 N   0  0  0  0  0  0
   -3.0216   32.7532   11.9818 C   0  0  0  0  0  0
   -2.3895   32.2697   10.8740 C   0  0  0  0  0  0
   -2.9521   30.9898   10.6212 C   0  0  0  0  0  0
   -3.9374   30.7977   11.6383 C   0  0  0  0  0  0
   -4.8724   29.7150   11.9739 C   0  0  0  0  0  0
   -3.5269   27.9184   10.7199 C   0  0  0  0  0  0
   -3.3479   28.6673    9.4117 C   0  0  0  0  0  0
   -2.5267   29.9447    9.5623 C   0  0  0  0  0  0
   -1.4023   30.1435    8.7539 C   0  0  0  0  0  0
   -0.7923   29.2745    7.6681 C   0  0  0  0  0  0
    0.4605   31.0192    7.8678 C   0  0  0  0  0  0
   -4.5151   32.0291   13.2152 H   0  0  0  0  0  0
   -5.3160   27.7550   11.8033 H   0  0  0  0  0  0
   -0.6145   32.0387    9.3237 H   0  0  0  0  0  0
    2.1507   31.7027    7.0405 H   0  0  0  0  0  0
    1.4640   32.7133    8.2301 H   0  0  0  0  0  0
  1  9  1  0  0  0
  2 13  2  0  0  0
  3 18  2  0  0  0
  4  9  1  0  0  0
  4 12  1  0  0  0
  4 20  1  0  0  0
  5 13  1  0  0  0
  5 14  1  0  0  0
  5 21  1  0  0  0
  6 18  1  0  0  0
  6 19  2  0  0  0
  7 17  1  0  0  0
  7 19  1  0  0  0
  7 22  1  0  0  0
  8 19  1  0  0  0
  8 23  1  0  0  0
  8 24  1  0  0  0
  9 10  2  0  0  0
 10 11  1  0  0  0
 11 12  2  0  0  0
 11 16  1  0  0  0
 12 13  1  0  0  0
 14 15  1  0  0  0
 15 16  1  0  0  0
 16 17  2  0  0  0
 17 18  1  0  0  0
M  END
>  <CHROM.0>
-36.11506237,-46.19714654,179.34804434,38.93760789,177.28231021,-61.11066012

>  <CHROM.1>
-2.46633837,31.26278860,10.64142358,-2.11159830,-0.68020386,-2.59290478

>  <FORMUL>
      HMD    C11 H10 Br1 N5 O2

>  <HET>
 HMD  A 400      19

>  <HETNAM>
     HMD 4-(5-AMINO-4-OXO-4H-PYRAZOL-3-YL)-2-BROMO-4,5,6,7-TETRA
   2 HMD HYDRO-3AH-PYRROLO[2,3-C]AZEPIN-8-ONE

>  <HETSYN>
     HMD HYMENIALDISINE

>  <Name>
HMD.pdb

>  <RI>
3.55094e+07

>  <Rbt.Current_Directory>
/home/malgorzata/Desktop/rDOCK_IFD/Wyniki/2a_CDK2

>  <Rbt.Executable>
rbdock ($Id: //depot/dev/client3/rdock/2013.1/src/exe/rbdock.cxx#4 $)

>  <Rbt.Library>
libRbt.so (2013.1, Build901 2013/11/27)

>  <Rbt.Parameter_File>
/home/malgorzata/Desktop/rDock_2013.1_src/data/scripts/soft_docking.prm

>  <Rbt.Receptor>
cavity.prm

>  <SCORE>
-27.6281

>  <SCORE.INTER>
-28.6

>  <SCORE.INTER.CONST>
1

>  <SCORE.INTER.POLAR>
0

>  <SCORE.INTER.REPUL>
0

>  <SCORE.INTER.ROT>
0

>  <SCORE.INTER.VDW>
-34

>  <SCORE.INTER.norm>
-1.50527

>  <SCORE.INTRA>
0

>  <SCORE.INTRA.DIHEDRAL>
0

>  <SCORE.INTRA.DIHEDRAL.0>
0

>  <SCORE.INTRA.POLAR>
0

>  <SCORE.INTRA.POLAR.0>
0

>  <SCORE.INTRA.REPUL>
0

>  <SCORE.INTRA.REPUL.0>
0

>  <SCORE.INTRA.VDW>
0

>  <SCORE.INTRA.VDW.0>
0

>  <SCORE.INTRA.norm>
0

>  <SCORE.RESTR>
0

>  <SCORE.RESTR.CAVITY>
0

>  <SCORE.RESTR.norm>
0

>  <SCORE.SYSTEM>
0.971923

>  <SCORE.SYSTEM.CONST>
0

>  <SCORE.SYSTEM.DIHEDRAL>
2.02955

>  <SCORE.SYSTEM.POLAR>
-0.61103

>  <SCORE.SYSTEM.REPUL>
0.8

>  <SCORE.SYSTEM.VDW>
-1.96535

>  <SCORE.SYSTEM.norm>
0.0511538

>  <SCORE.heavy>
19

>  <SCORE.norm>
-1.45411

$$$$
HMD.pdb
  rDOCK(R)          3D
libRbt.so/2013.1/901 2013/11/27
 24 26  0  0  0  0  0  0  0  0999 V2000
   -5.7341   32.9743   13.9414 Br  0  0  0  0  0  0
   -2.1500   32.5296    9.9876 O   0  0  0  0  0  0
   -3.8436   25.4250   10.6088 O   0  0  0  0  0  0
   -4.0971   32.2117   11.8397 N   0  0  0  0  0  0
   -2.5376   30.4885    9.0243 N   0  0  0  0  0  0
   -5.4925   25.3124   12.2084 N   0  0  0  0  0  0
   -5.5774   27.4755   12.8047 N   0  0  0  0  0  0
   -7.0227   25.9947   13.8653 N   0  0  0  0  0  0
   -4.8771   31.7687   12.8281 C   0  0  0  0  0  0
   -4.9202   30.4056   12.8498 C   0  0  0  0  0  0
   -4.1052   29.9641   11.7730 C   0  0  0  0  0  0
   -3.5985   31.1537   11.1644 C   0  0  0  0  0  0
   -2.7180   31.4300   10.0210 C   0  0  0  0  0  0
   -3.1325   29.1453    8.9169 C   0  0  0  0  0  0
   -2.8853   28.2764   10.1368 C   0  0  0  0  0  0
   -3.8914   28.5208   11.2579 C   0  0  0  0  0  0
   -4.6088   27.4440   11.7903 C   0  0  0  0  0  0
   -4.5787   25.9643   11.4505 C   0  0  0  0  0  0
   -6.0686   26.2359   12.9867 C   0  0  0  0  0  0
   -3.9147   33.1574   11.6358 H   0  0  0  0  0  0
   -1.9337   30.7497    8.2920 H   0  0  0  0  0  0
   -5.8539   28.2775   13.3043 H   0  0  0  0  0  0
   -7.3658   25.0791   13.9804 H   0  0  0  0  0  0
   -7.3915   26.7303   14.4058 H   0  0  0  0  0  0
  1  9  1  0  0  0
  2 13  2  0  0  0
  3 18  2  0  0  0
  4  9  1  0  0  0
  4 12  1  0  0  0
  4 20  1  0  0  0
  5 13  1  0  0  0
  5 14  1  0  0  0
  5 21  1  0  0  0
  6 18  1  0  0  0
  6 19  2  0  0  0
  7 17  1  0  0  0
  7 19  1  0  0  0
  7 22  1  0  0  0
  8 19  1  0  0  0
  8 23  1  0  0  0
  8 24  1  0  0  0
  9 10  2  0  0  0
 10 11  1  0  0  0
 11 12  2  0  0  0
 11 16  1  0  0  0
 12 13  1  0  0  0
 14 15  1  0  0  0
 15 16  1  0  0  0
 16 17  2  0  0  0
 17 18  1  0  0  0
M  END
>  <CHROM.0>
-174.01938076,36.47614623,-75.72989283,-172.13549939,-178.23402942,-61.11066012

>  <CHROM.1>
-4.59464960,29.87162382,12.02345989,1.60666274,0.87746181,0.18558079

>  <FORMUL>
      HMD    C11 H10 Br1 N5 O2

>  <HET>
 HMD  A 400      19

>  <HETNAM>
     HMD 4-(5-AMINO-4-OXO-4H-PYRAZOL-3-YL)-2-BROMO-4,5,6,7-TETRA
   2 HMD HYDRO-3AH-PYRROLO[2,3-C]AZEPIN-8-ONE

>  <HETSYN>
     HMD HYMENIALDISINE

>  <Name>
HMD.pdb

>  <RI>
3.55094e+07

>  <Rbt.Current_Directory>
/home/malgorzata/Desktop/rDOCK_IFD/Wyniki/2a_CDK2

>  <Rbt.Executable>
rbdock ($Id: //depot/dev/client3/rdock/2013.1/src/exe/rbdock.cxx#4 $)

>  <Rbt.Library>
libRbt.so (2013.1, Build901 2013/11/27)

>  <Rbt.Parameter_File>
/home/malgorzata/Desktop/rDock_2013.1_src/data/scripts/soft_docking.prm

>  <Rbt.Receptor>
cavity.prm

>  <SCORE>
-28.2492

>  <SCORE.INTER>
-29.0174

>  <SCORE.INTER.CONST>
1

>  <SCORE.INTER.POLAR>
-1.23256

>  <SCORE.INTER.REPUL>
0.0525612

>  <SCORE.INTER.ROT>
0

>  <SCORE.INTER.VDW>
-30.4895

>  <SCORE.INTER.norm>
-1.52723

>  <SCORE.INTRA>
0

>  <SCORE.INTRA.DIHEDRAL>
0

>  <SCORE.INTRA.DIHEDRAL.0>
0

>  <SCORE.INTRA.POLAR>
0

>  <SCORE.INTRA.POLAR.0>
0

>  <SCORE.INTRA.REPUL>
0

>  <SCORE.INTRA.REPUL.0>
0

>  <SCORE.INTRA.VDW>
0

>  <SCORE.INTRA.VDW.0>
0

>  <SCORE.INTRA.norm>
0

>  <SCORE.RESTR>
0.000789342

>  <SCORE.RESTR.CAVITY>
0.000789342

>  <SCORE.RESTR.norm>
4.15443e-05

>  <SCORE.SYSTEM>
0.767424

>  <SCORE.SYSTEM.CONST>
0

>  <SCORE.SYSTEM.DIHEDRAL>
2.02188

>  <SCORE.SYSTEM.POLAR>
-0.588445

>  <SCORE.SYSTEM.REPUL>
0.8

>  <SCORE.SYSTEM.VDW>
-2.2428

>  <SCORE.SYSTEM.norm>
0.0403907

>  <SCORE.heavy>
19

>  <SCORE.norm>
-1.4868

$$$$
HMD.pdb
  rDOCK(R)          3D
libRbt.so/2013.1/901 2013/11/27
 24 26  0  0  0  0  0  0  0  0999 V2000
   -2.7550   34.6178   12.8713 Br  0  0  0  0  0  0
   -5.7974   30.2126   12.9876 O   0  0  0  0  0  0
   -2.1588   28.7546    6.7937 O   0  0  0  0  0  0
   -3.9635   32.1483   12.5265 N   0  0  0  0  0  0
   -4.7740   28.7137   11.5909 N   0  0  0  0  0  0
   -0.6531   30.4738    6.5330 N   0  0  0  0  0  0
   -1.2374   31.7461    8.2884 N   0  0  0  0  0  0
    0.5049   32.4855    6.9378 N   0  0  0  0  0  0
   -3.1530   33.0507   11.9696 C   0  0  0  0  0  0
   -2.7178   32.6348   10.7456 C   0  0  0  0  0  0
   -3.2996   31.3568   10.5292 C   0  0  0  0  0  0
   -4.0899   31.0949   11.6907 C   0  0  0  0  0  0
   -4.9382   29.9776   12.1276 C   0  0  0  0  0  0
   -3.8095   28.2727   10.5688 C   0  0  0  0  0  0
   -3.8710   29.0875    9.2895 C   0  0  0  0  0  0
   -3.0524   30.3734    9.3604 C   0  0  0  0  0  0
   -2.0888   30.6348    8.3803 C   0  0  0  0  0  0
   -1.6667   29.8324    7.1621 C   0  0  0  0  0  0
   -0.4204   31.5918    7.2303 C   0  0  0  0  0  0
   -4.3991   32.2363   13.4049 H   0  0  0  0  0  0
   -5.3800   28.0191   11.9366 H   0  0  0  0  0  0
   -1.2377   32.5168    8.9010 H   0  0  0  0  0  0
    1.0908   32.3504    6.1582 H   0  0  0  0  0  0
    0.6094   33.2876    7.4991 H   0  0  0  0  0  0
  1  9  1  0  0  0
  2 13  2  0  0  0
  3 18  2  0  0  0
  4  9  1  0  0  0
  4 12  1  0  0  0
  4 20  1  0  0  0
  5 13  1  0  0  0
  5 14  1  0  0  0
  5 21  1  0  0  0
  6 18  1  0  0  0
  6 19  2  0  0  0
  7 17  1  0  0  0
  7 19  1  0  0  0
  7 22  1  0  0  0
  8 19  1  0  0  0
  8 23  1  0  0  0
  8 24  1  0  0  0
  9 10  2  0  0  0
 10 11  1  0  0  0
 11 12  2  0  0  0
 11 16  1  0  0  0
 12 13  1  0  0  0
 14 15  1  0  0  0
 15 16  1  0  0  0
 16 17  2  0  0  0
 17 18  1  0  0  0
M  END
>  <CHROM.0>
79.25987603,137.11167386,-88.57755221,-115.40796449,123.41471947,-61.11066012

>  <CHROM.1>
-2.82130568,31.63888575,10.47869603,-1.99204881,-0.83322995,-2.46044128

>  <FORMUL>
      HMD    C11 H10 Br1 N5 O2

>  <HET>
 HMD  A 400      19

>  <HETNAM>
     HMD 4-(5-AMINO-4-OXO-4H-PYRAZOL-3-YL)-2-BROMO-4,5,6,7-TETRA
   2 HMD HYDRO-3AH-PYRROLO[2,3-C]AZEPIN-8-ONE

>  <HETSYN>
     HMD HYMENIALDISINE

>  <Name>
HMD.pdb

>  <RI>
3.55094e+07

>  <Rbt.Current_Directory>
/home/malgorzata/Desktop/rDOCK_IFD/Wyniki/2a_CDK2

>  <Rbt.Executable>
rbdock ($Id: //depot/dev/client3/rdock/2013.1/src/exe/rbdock.cxx#4 $)

>  <Rbt.Library>
libRbt.so (2013.1, Build901 2013/11/27)

>  <Rbt.Parameter_File>
/home/malgorzata/Desktop/rDock_2013.1_src/data/scripts/soft_docking.prm

>  <Rbt.Receptor>
cavity.prm

>  <SCORE>
-29.6667

>  <SCORE.INTER>
-30.7186

>  <SCORE.INTER.CONST>
1

>  <SCORE.INTER.POLAR>
-0.530472

>  <SCORE.INTER.REPUL>
0

>  <SCORE.INTER.ROT>
0

>  <SCORE.INTER.VDW>
-34.315

>  <SCORE.INTER.norm>
-1.61677

>  <SCORE.INTRA>
0

>  <SCORE.INTRA.DIHEDRAL>
0

>  <SCORE.INTRA.DIHEDRAL.0>
0

>  <SCORE.INTRA.POLAR>
0

>  <SCORE.INTRA.POLAR.0>
0

>  <SCORE.INTRA.REPUL>
0

>  <SCORE.INTRA.REPUL.0>
0

>  <SCORE.INTRA.VDW>
0

>  <SCORE.INTRA.VDW.0>
0

>  <SCORE.INTRA.norm>
0

>  <SCORE.RESTR>
0.00237633

>  <SCORE.RESTR.CAVITY>
0.00237633

>  <SCORE.RESTR.norm>
0.00012507

>  <SCORE.SYSTEM>
1.04954

>  <SCORE.SYSTEM.CONST>
0

>  <SCORE.SYSTEM.DIHEDRAL>
2.02153

>  <SCORE.SYSTEM.POLAR>
-0.552645

>  <SCORE.SYSTEM.REPUL>
0.8

>  <SCORE.SYSTEM.VDW>
-2.08224

>  <SCORE.SYSTEM.norm>
0.0552387

>  <SCORE.heavy>
19

>  <SCORE.norm>
-1.5614

$$$$
HMD.pdb
  rDOCK(R)          3D
libRbt.so/2013.1/901 2013/11/27
 24 26  0  0  0  0  0  0  0  0999 V2000
   -2.7800   34.5279   12.9560 Br  0  0  0  0  0  0
   -5.9741   30.2443   13.3080 O   0  0  0  0  0  0
   -2.2954   28.2594    7.2866 O   0  0  0  0  0  0
   -4.0677   32.0828   12.7528 N   0  0  0  0  0  0
   -4.9823   28.6230   12.0304 N   0  0  0  0  0  0
   -0.7276   29.9063    6.9399 N   0  0  0  0  0  0
   -1.2938   31.3106    8.5979 N   0  0  0  0  0  0
    0.4930   31.9005    7.2320 N   0  0  0  0  0  0
   -3.2182   32.9189   12.1521 C   0  0  0  0  0  0
   -2.7793   32.4088   10.9657 C   0  0  0  0  0  0
   -3.4017   31.1394   10.8234 C   0  0  0  0  0  0
   -4.2178   30.9814   11.9858 C   0  0  0  0  0  0
   -5.1108   29.9244   12.4803 C   0  0  0  0  0  0
   -4.0184   28.0834   11.0561 C   0  0  0  0  0  0
   -4.0325   28.8136    9.7253 C   0  0  0  0  0  0
   -3.1710   30.0732    9.7260 C   0  0  0  0  0  0
   -2.1844   30.2370    8.7477 C   0  0  0  0  0  0
   -1.7720   29.3422    7.5921 C   0  0  0  0  0  0
   -0.4668   31.0595    7.5664 C   0  0  0  0  0  0
   -4.5132   32.2432   13.6160 H   0  0  0  0  0  0
   -5.6170   27.9734   12.4103 H   0  0  0  0  0  0
   -1.2767   32.1197    9.1586 H   0  0  0  0  0  0
    1.0856   31.6946    6.4732 H   0  0  0  0  0  0
    0.6168   32.7339    7.7413 H   0  0  0  0  0  0
  1  9  1  0  0  0
  2 13  2  0  0  0
  3 18  2  0  0  0
  4  9  1  0  0  0
  4 12  1  0  0  0
  4 20  1  0  0  0
  5 13  1  0  0  0
  5 14  1  0  0  0
  5 21  1  0  0  0
  6 18  1  0  0  0
  6 19  2  0  0  0
  7 17  1  0  0  0
  7 19  1  0  0  0
  7 22  1  0  0  0
  8 19  1  0  0  0
  8 23  1  0  0  0
  8 24  1  0  0  0
  9 10  2  0  0  0
 10 11  1  0  0  0
 11 12  2  0  0  0
 11 16  1  0  0  0
 12 13  1  0  0  0
 14 15  1  0  0  0
 15 16  1  0  0  0
 16 17  2  0  0  0
 17 18  1  0  0  0
M  END
>  <CHROM.0>
-102.79831697,97.25592535,97.90745578,30.74017303,160.76718628,-61.11066012

>  <CHROM.1>
-2.91318603,31.40136659,10.76283668,-1.96710640,-0.79964169,-2.50809709

>  <FORMUL>
      HMD    C11 H10 Br1 N5 O2

>  <HET>
 HMD  A 400      19

>  <HETNAM>
     HMD 4-(5-AMINO-4-OXO-4H-PYRAZOL-3-YL)-2-BROMO-4,5,6,7-TETRA
   2 HMD HYDRO-3AH-PYRROLO[2,3-C]AZEPIN-8-ONE

>  <HETSYN>
     HMD HYMENIALDISINE

>  <Name>
HMD.pdb

>  <RI>
3.55094e+07

>  <Rbt.Current_Directory>
/home/malgorzata/Desktop/rDOCK_IFD/Wyniki/2a_CDK2

>  <Rbt.Executable>
rbdock ($Id: //depot/dev/client3/rdock/2013.1/src/exe/rbdock.cxx#4 $)

>  <Rbt.Library>
libRbt.so (2013.1, Build901 2013/11/27)

>  <Rbt.Parameter_File>
/home/malgorzata/Desktop/rDock_2013.1_src/data/scripts/soft_docking.prm

>  <Rbt.Receptor>
cavity.prm

>  <SCORE>
-29.7553

>  <SCORE.INTER>
-30.865

>  <SCORE.INTER.CONST>
1

>  <SCORE.INTER.POLAR>
-0.389508

>  <SCORE.INTER.REPUL>
0

>  <SCORE.INTER.ROT>
0

>  <SCORE.INTER.VDW>
-34.9407

>  <SCORE.INTER.norm>
-1.62447

>  <SCORE.INTRA>
0

>  <SCORE.INTRA.DIHEDRAL>
0

>  <SCORE.INTRA.DIHEDRAL.0>
0

>  <SCORE.INTRA.POLAR>
0

>  <SCORE.INTRA.POLAR.0>
0

>  <SCORE.INTRA.REPUL>
0

>  <SCORE.INTRA.REPUL.0>
0

>  <SCORE.INTRA.VDW>
0

>  <SCORE.INTRA.VDW.0>
0

>  <SCORE.INTRA.norm>
0

>  <SCORE.RESTR>
0.0586386

>  <SCORE.RESTR.CAVITY>
0.0586386

>  <SCORE.RESTR.norm>
0.00308624

>  <SCORE.SYSTEM>
1.05108

>  <SCORE.SYSTEM.CONST>
0

>  <SCORE.SYSTEM.DIHEDRAL>
2.03444

>  <SCORE.SYSTEM.POLAR>
-0.619677

>  <SCORE.SYSTEM.REPUL>
0.8

>  <SCORE.SYSTEM.VDW>
-1.85923

>  <SCORE.SYSTEM.norm>
0.0553201

>  <SCORE.heavy>
19

>  <SCORE.norm>
-1.56607

$$$$
