HMD.pdb
  rDOCK(R)          3D
libRbt.so/2013.1/901 2013/11/27
 24 26  0  0  0  0  0  0  0  0999 V2000
   -3.0152   34.0027   12.8660 Br  0  0  0  0  0  0
   -5.7683   29.4409   12.3306 O   0  0  0  0  0  0
   -1.3601   28.6379    6.5295 O   0  0  0  0  0  0
   -4.0188   31.5024   12.2185 N   0  0  0  0  0  0
   -4.4997   28.1057   10.9696 N   0  0  0  0  0  0
    0.0545   30.4512    6.5628 N   0  0  0  0  0  0
   -0.8056   31.5588    8.3164 N   0  0  0  0  0  0
    1.0300   32.4885    7.2336 N   0  0  0  0  0  0
   -3.2081   32.4859   11.8223 C   0  0  0  0  0  0
   -2.6104   32.1844   10.6339 C   0  0  0  0  0  0
   -3.0823   30.8956   10.2663 C   0  0  0  0  0  0
   -3.9823   30.5072   11.3062 C   0  0  0  0  0  0
   -4.8033   29.3164   11.5651 C   0  0  0  0  0  0
   -3.3988   27.7935   10.0423 C   0  0  0  0  0  0
   -3.3644   28.6945    8.8211 C   0  0  0  0  0  0
   -2.6416   30.0147    9.0731 C   0  0  0  0  0  0
   -1.5905   30.3989    8.2335 C   0  0  0  0  0  0
   -0.9821   29.7114    7.0238 C   0  0  0  0  0  0
    0.1353   31.5267    7.3549 C   0  0  0  0  0  0
   -4.5568   31.5024   13.0430 H   0  0  0  0  0  0
   -5.0964   27.3557   11.1946 H   0  0  0  0  0  0
   -0.9244   32.2818    8.9740 H   0  0  0  0  0  0
    1.7086   32.4426    6.5218 H   0  0  0  0  0  0
    1.0190   33.2522    7.8548 H   0  0  0  0  0  0
  1  9  1  0  0  0
  2 13  2  0  0  0
  3 18  2  0  0  0
  4  9  1  0  0  0
  4 12  1  0  0  0
  4 20  1  0  0  0
  5 13  1  0  0  0
  5 14  1  0  0  0
  5 21  1  0  0  0
  6 18  1  0  0  0
  6 19  2  0  0  0
  7 17  1  0  0  0
  7 19  1  0  0  0
  7 22  1  0  0  0
  8 19  1  0  0  0
  8 23  1  0  0  0
  8 24  1  0  0  0
  9 10  2  0  0  0
 10 11  1  0  0  0
 11 12  2  0  0  0
 11 16  1  0  0  0
 12 13  1  0  0  0
 14 15  1  0  0  0
 15 16  1  0  0  0
 16 17  2  0  0  0
 17 18  1  0  0  0
M  END
>  <CHROM.0>
-155.85529568,85.06576449,-156.90788179,-21.16412369,174.47949852,-61.11066012

>  <CHROM.1>
-2.61997437,31.20631160,10.29162933,-2.16223359,-0.77614483,-2.51370966

>  <FORMUL>
      HMD    C11 H10 Br1 N5 O2

>  <HET>
 HMD  A 400      19

>  <HETNAM>
     HMD 4-(5-AMINO-4-OXO-4H-PYRAZOL-3-YL)-2-BROMO-4,5,6,7-TETRA
   2 HMD HYDRO-3AH-PYRROLO[2,3-C]AZEPIN-8-ONE

>  <HETSYN>
     HMD HYMENIALDISINE

>  <Name>
HMD.pdb

>  <RI>
2.03259e+07

>  <Rbt.Current_Directory>
/home/malgorzata/Desktop/rDOCK_IFD/Wyniki/2a_CDK2

>  <Rbt.Executable>
rbdock ($Id: //depot/dev/client3/rdock/2013.1/src/exe/rbdock.cxx#4 $)

>  <Rbt.Library>
libRbt.so (2013.1, Build901 2013/11/27)

>  <Rbt.Parameter_File>
/home/malgorzata/Desktop/rDock_2013.1_src/data/scripts/soft_docking.prm

>  <Rbt.Receptor>
cavity.prm

>  <SCORE>
-29.1856

>  <SCORE.INTER>
-30.1778

>  <SCORE.INTER.CONST>
1

>  <SCORE.INTER.POLAR>
-0.999931

>  <SCORE.INTER.REPUL>
0

>  <SCORE.INTER.ROT>
0

>  <SCORE.INTER.VDW>
-32.1781

>  <SCORE.INTER.norm>
-1.58831

>  <SCORE.INTRA>
0

>  <SCORE.INTRA.DIHEDRAL>
0

>  <SCORE.INTRA.DIHEDRAL.0>
0

>  <SCORE.INTRA.POLAR>
0

>  <SCORE.INTRA.POLAR.0>
0

>  <SCORE.INTRA.REPUL>
0

>  <SCORE.INTRA.REPUL.0>
0

>  <SCORE.INTRA.VDW>
0

>  <SCORE.INTRA.VDW.0>
0

>  <SCORE.INTRA.norm>
0

>  <SCORE.RESTR>
0

>  <SCORE.RESTR.CAVITY>
0

>  <SCORE.RESTR.norm>
0

>  <SCORE.SYSTEM>
0.992273

>  <SCORE.SYSTEM.CONST>
0

>  <SCORE.SYSTEM.DIHEDRAL>
2.02958

>  <SCORE.SYSTEM.POLAR>
-0.619677

>  <SCORE.SYSTEM.REPUL>
0.8

>  <SCORE.SYSTEM.VDW>
-1.91562

>  <SCORE.SYSTEM.norm>
0.0522249

>  <SCORE.heavy>
19

>  <SCORE.norm>
-1.53608

$$$$
HMD.pdb
  rDOCK(R)          3D
libRbt.so/2013.1/901 2013/11/27
 24 26  0  0  0  0  0  0  0  0999 V2000
   -3.3235   33.7905   12.8580 Br  0  0  0  0  0  0
   -5.6318   29.0159   12.1154 O   0  0  0  0  0  0
   -0.6665   28.5754    6.7412 O   0  0  0  0  0  0
   -4.0551   31.2150   12.1438 N   0  0  0  0  0  0
   -4.1397   27.7890   10.8852 N   0  0  0  0  0  0
    0.5851   30.4997    6.8864 N   0  0  0  0  0  0
   -0.5182   31.5339    8.5462 N   0  0  0  0  0  0
    1.3248   32.6114    7.6250 N   0  0  0  0  0  0
   -3.2957   32.2619   11.8139 C   0  0  0  0  0  0
   -2.5704   32.0099   10.6866 C   0  0  0  0  0  0
   -2.8993   30.6861   10.2889 C   0  0  0  0  0  0
   -3.8545   30.2255   11.2469 C   0  0  0  0  0  0
   -4.5946   28.9710   11.4408 C   0  0  0  0  0  0
   -2.9376   27.5682   10.0633 C   0  0  0  0  0  0
   -2.8674   28.4679    8.8427 C   0  0  0  0  0  0
   -2.2815   29.8437    9.1475 C   0  0  0  0  0  0
   -1.1941   30.3129    8.4027 C   0  0  0  0  0  0
   -0.4245   29.6770    7.2584 C   0  0  0  0  0  0
    0.5051   31.5789    7.6734 C   0  0  0  0  0  0
   -4.6635   31.1712   12.9166 H   0  0  0  0  0  0
   -4.6905   26.9924   11.0619 H   0  0  0  0  0  0
   -0.7551   32.2451    9.1844 H   0  0  0  0  0  0
    2.0664   32.6213    6.9776 H   0  0  0  0  0  0
    1.1949   33.3721    8.2363 H   0  0  0  0  0  0
  1  9  1  0  0  0
  2 13  2  0  0  0
  3 18  2  0  0  0
  4  9  1  0  0  0
  4 12  1  0  0  0
  4 20  1  0  0  0
  5 13  1  0  0  0
  5 14  1  0  0  0
  5 21  1  0  0  0
  6 18  1  0  0  0
  6 19  2  0  0  0
  7 17  1  0  0  0
  7 19  1  0  0  0
  7 22  1  0  0  0
  8 19  1  0  0  0
  8 23  1  0  0  0
  8 24  1  0  0  0
  9 10  2  0  0  0
 10 11  1  0  0  0
 11 12  2  0  0  0
 11 16  1  0  0  0
 12 13  1  0  0  0
 14 15  1  0  0  0
 15 16  1  0  0  0
 16 17  2  0  0  0
 17 18  1  0  0  0
M  END
>  <CHROM.0>
81.41503170,151.74696658,70.77666123,-95.96586947,108.28950506,-61.11066012

>  <CHROM.1>
-2.46832565,31.03408040,10.35309444,-2.32578229,-0.74457962,-2.63121488

>  <FORMUL>
      HMD    C11 H10 Br1 N5 O2

>  <HET>
 HMD  A 400      19

>  <HETNAM>
     HMD 4-(5-AMINO-4-OXO-4H-PYRAZOL-3-YL)-2-BROMO-4,5,6,7-TETRA
   2 HMD HYDRO-3AH-PYRROLO[2,3-C]AZEPIN-8-ONE

>  <HETSYN>
     HMD HYMENIALDISINE

>  <Name>
HMD.pdb

>  <RI>
2.03259e+07

>  <Rbt.Current_Directory>
/home/malgorzata/Desktop/rDOCK_IFD/Wyniki/2a_CDK2

>  <Rbt.Executable>
rbdock ($Id: //depot/dev/client3/rdock/2013.1/src/exe/rbdock.cxx#4 $)

>  <Rbt.Library>
libRbt.so (2013.1, Build901 2013/11/27)

>  <Rbt.Parameter_File>
/home/malgorzata/Desktop/rDock_2013.1_src/data/scripts/soft_docking.prm

>  <Rbt.Receptor>
cavity.prm

>  <SCORE>
-28.3999

>  <SCORE.INTER>
-29.9373

>  <SCORE.INTER.CONST>
1

>  <SCORE.INTER.POLAR>
-0.781702

>  <SCORE.INTER.REPUL>
0

>  <SCORE.INTER.ROT>
0

>  <SCORE.INTER.VDW>
-32.6795

>  <SCORE.INTER.norm>
-1.57565

>  <SCORE.INTRA>
0

>  <SCORE.INTRA.DIHEDRAL>
0

>  <SCORE.INTRA.DIHEDRAL.0>
0

>  <SCORE.INTRA.POLAR>
0

>  <SCORE.INTRA.POLAR.0>
0

>  <SCORE.INTRA.REPUL>
0

>  <SCORE.INTRA.REPUL.0>
0

>  <SCORE.INTRA.VDW>
0

>  <SCORE.INTRA.VDW.0>
0

>  <SCORE.INTRA.norm>
0

>  <SCORE.RESTR>
0

>  <SCORE.RESTR.CAVITY>
0

>  <SCORE.RESTR.norm>
0

>  <SCORE.SYSTEM>
1.53736

>  <SCORE.SYSTEM.CONST>
0

>  <SCORE.SYSTEM.DIHEDRAL>
2.02216

>  <SCORE.SYSTEM.POLAR>
-0.453158

>  <SCORE.SYSTEM.REPUL>
0.8

>  <SCORE.SYSTEM.VDW>
-1.93298

>  <SCORE.SYSTEM.norm>
0.0809136

>  <SCORE.heavy>
19

>  <SCORE.norm>
-1.49473

$$$$
HMD.pdb
  rDOCK(R)          3D
libRbt.so/2013.1/901 2013/11/27
 24 26  0  0  0  0  0  0  0  0999 V2000
   -3.2338   34.2000   12.9134 Br  0  0  0  0  0  0
   -5.7195   29.4620   13.1336 O   0  0  0  0  0  0
   -1.7496   28.2315    7.0958 O   0  0  0  0  0  0
   -4.1220   31.5896   12.6396 N   0  0  0  0  0  0
   -4.4806   28.0490   11.8248 N   0  0  0  0  0  0
   -0.4574   30.1116    6.8026 N   0  0  0  0  0  0
   -1.2436   31.3672    8.4899 N   0  0  0  0  0  0
    0.4347   32.2640    7.1537 N   0  0  0  0  0  0
   -3.4113   32.5634   12.0666 C   0  0  0  0  0  0
   -2.8929   32.1586   10.8717 C   0  0  0  0  0  0
   -3.3082   30.8117   10.6931 C   0  0  0  0  0  0
   -4.0946   30.4983   11.8445 C   0  0  0  0  0  0
   -4.8131   29.3023   12.3054 C   0  0  0  0  0  0
   -3.4399   27.6919   10.8455 C   0  0  0  0  0  0
   -3.5624   28.4446    9.5330 C   0  0  0  0  0  0
   -2.9088   29.8231    9.5718 C   0  0  0  0  0  0
   -1.9558   30.1640    8.6059 C   0  0  0  0  0  0
   -1.4034   29.3746    7.4321 C   0  0  0  0  0  0
   -0.3831   31.2750    7.4594 C   0  0  0  0  0  0
   -4.5908   31.6563   13.5027 H   0  0  0  0  0  0
   -5.0074   27.2987   12.1834 H   0  0  0  0  0  0
   -1.3558   32.1544    9.0704 H   0  0  0  0  0  0
    1.0554   32.1728    6.3950 H   0  0  0  0  0  0
    0.4243   33.0932    7.6843 H   0  0  0  0  0  0
  1  9  1  0  0  0
  2 13  2  0  0  0
  3 18  2  0  0  0
  4  9  1  0  0  0
  4 12  1  0  0  0
  4 20  1  0  0  0
  5 13  1  0  0  0
  5 14  1  0  0  0
  5 21  1  0  0  0
  6 18  1  0  0  0
  6 19  2  0  0  0
  7 17  1  0  0  0
  7 19  1  0  0  0
  7 22  1  0  0  0
  8 19  1  0  0  0
  8 23  1  0  0  0
  8 24  1  0  0  0
  9 10  2  0  0  0
 10 11  1  0  0  0
 11 12  2  0  0  0
 11 16  1  0  0  0
 12 13  1  0  0  0
 14 15  1  0  0  0
 15 16  1  0  0  0
 16 17  2  0  0  0
 17 18  1  0  0  0
M  END
>  <CHROM.0>
-57.60816505,-79.02467411,135.52759464,-108.83196177,149.72934600,-61.11066012

>  <CHROM.1>
-2.86650693,31.14822936,10.64300453,-2.17038991,-0.87951754,-2.63452853

>  <FORMUL>
      HMD    C11 H10 Br1 N5 O2

>  <HET>
 HMD  A 400      19

>  <HETNAM>
     HMD 4-(5-AMINO-4-OXO-4H-PYRAZOL-3-YL)-2-BROMO-4,5,6,7-TETRA
   2 HMD HYDRO-3AH-PYRROLO[2,3-C]AZEPIN-8-ONE

>  <HETSYN>
     HMD HYMENIALDISINE

>  <Name>
HMD.pdb

>  <RI>
2.03259e+07

>  <Rbt.Current_Directory>
/home/malgorzata/Desktop/rDOCK_IFD/Wyniki/2a_CDK2

>  <Rbt.Executable>
rbdock ($Id: //depot/dev/client3/rdock/2013.1/src/exe/rbdock.cxx#4 $)

>  <Rbt.Library>
libRbt.so (2013.1, Build901 2013/11/27)

>  <Rbt.Parameter_File>
/home/malgorzata/Desktop/rDock_2013.1_src/data/scripts/soft_docking.prm

>  <Rbt.Receptor>
cavity.prm

>  <SCORE>
-27.364

>  <SCORE.INTER>
-28.402

>  <SCORE.INTER.CONST>
1

>  <SCORE.INTER.POLAR>
-0.610949

>  <SCORE.INTER.REPUL>
0

>  <SCORE.INTER.ROT>
0

>  <SCORE.INTER.VDW>
-31.7248

>  <SCORE.INTER.norm>
-1.49484

>  <SCORE.INTRA>
0

>  <SCORE.INTRA.DIHEDRAL>
0

>  <SCORE.INTRA.DIHEDRAL.0>
0

>  <SCORE.INTRA.POLAR>
0

>  <SCORE.INTRA.POLAR.0>
0

>  <SCORE.INTRA.REPUL>
0

>  <SCORE.INTRA.REPUL.0>
0

>  <SCORE.INTRA.VDW>
0

>  <SCORE.INTRA.VDW.0>
0

>  <SCORE.INTRA.norm>
0

>  <SCORE.RESTR>
0.328414

>  <SCORE.RESTR.CAVITY>
0.0656829

>  <SCORE.RESTR.norm>
0.017285

>  <SCORE.SYSTEM>
0.709653

>  <SCORE.SYSTEM.CONST>
0

>  <SCORE.SYSTEM.DIHEDRAL>
2.02182

>  <SCORE.SYSTEM.POLAR>
-0.619677

>  <SCORE.SYSTEM.REPUL>
0.8

>  <SCORE.SYSTEM.VDW>
-2.19435

>  <SCORE.SYSTEM.norm>
0.0373502

>  <SCORE.heavy>
19

>  <SCORE.norm>
-1.44021

$$$$
HMD.pdb
  rDOCK(R)          3D
libRbt.so/2013.1/901 2013/11/27
 24 26  0  0  0  0  0  0  0  0999 V2000
    0.2758   24.8972    7.7818 Br  0  0  0  0  0  0
   -3.0765   24.5731   11.9451 O   0  0  0  0  0  0
   -3.2687   31.8479   11.0675 O   0  0  0  0  0  0
   -1.5884   25.2752    9.7967 N   0  0  0  0  0  0
   -4.2398   26.5457   11.9612 N   0  0  0  0  0  0
   -1.9661   32.2905    9.2242 N   0  0  0  0  0  0
   -1.2305   30.2150    8.7846 N   0  0  0  0  0  0
   -0.5286   31.9386    7.3906 N   0  0  0  0  0  0
   -0.7735   25.8918    8.9382 C   0  0  0  0  0  0
   -0.8613   27.2474    9.0609 C   0  0  0  0  0  0
   -1.8240   27.4939   10.0763 C   0  0  0  0  0  0
   -2.2528   26.2041   10.5176 C   0  0  0  0  0  0
   -3.2169   25.7270   11.5187 C   0  0  0  0  0  0
   -4.5413   27.9303   11.5595 C   0  0  0  0  0  0
   -3.3662   28.8767   11.7264 C   0  0  0  0  0  0
   -2.4051   28.8505   10.5413 C   0  0  0  0  0  0
   -2.0766   30.0447    9.8907 C   0  0  0  0  0  0
   -2.5172   31.4739   10.1537 C   0  0  0  0  0  0
   -1.2228   31.5127    8.4284 C   0  0  0  0  0  0
   -1.6890   24.3003    9.8895 H   0  0  0  0  0  0
   -4.8444   26.1524   12.6311 H   0  0  0  0  0  0
   -0.7228   29.4986    8.3395 H   0  0  0  0  0  0
   -0.5387   32.8931    7.1498 H   0  0  0  0  0  0
   -0.0003   31.3018    6.8571 H   0  0  0  0  0  0
  1  9  1  0  0  0
  2 13  2  0  0  0
  3 18  2  0  0  0
  4  9  1  0  0  0
  4 12  1  0  0  0
  4 20  1  0  0  0
  5 13  1  0  0  0
  5 14  1  0  0  0
  5 21  1  0  0  0
  6 18  1  0  0  0
  6 19  2  0  0  0
  7 17  1  0  0  0
  7 19  1  0  0  0
  7 22  1  0  0  0
  8 19  1  0  0  0
  8 23  1  0  0  0
  8 24  1  0  0  0
  9 10  2  0  0  0
 10 11  1  0  0  0
 11 12  2  0  0  0
 11 16  1  0  0  0
 12 13  1  0  0  0
 14 15  1  0  0  0
 15 16  1  0  0  0
 16 17  2  0  0  0
 17 18  1  0  0  0
M  END
>  <CHROM.0>
45.15173418,-126.30265924,74.13485350,-3.05896974,178.19790506,-61.11066012

>  <CHROM.1>
-1.66264256,27.66276000,9.56998072,-1.15054785,0.82172195,-0.13331166

>  <FORMUL>
      HMD    C11 H10 Br1 N5 O2

>  <HET>
 HMD  A 400      19

>  <HETNAM>
     HMD 4-(5-AMINO-4-OXO-4H-PYRAZOL-3-YL)-2-BROMO-4,5,6,7-TETRA
   2 HMD HYDRO-3AH-PYRROLO[2,3-C]AZEPIN-8-ONE

>  <HETSYN>
     HMD HYMENIALDISINE

>  <Name>
HMD.pdb

>  <RI>
2.03259e+07

>  <Rbt.Current_Directory>
/home/malgorzata/Desktop/rDOCK_IFD/Wyniki/2a_CDK2

>  <Rbt.Executable>
rbdock ($Id: //depot/dev/client3/rdock/2013.1/src/exe/rbdock.cxx#4 $)

>  <Rbt.Library>
libRbt.so (2013.1, Build901 2013/11/27)

>  <Rbt.Parameter_File>
/home/malgorzata/Desktop/rDock_2013.1_src/data/scripts/soft_docking.prm

>  <Rbt.Receptor>
cavity.prm

>  <SCORE>
-24.0579

>  <SCORE.INTER>
-25.298

>  <SCORE.INTER.CONST>
1

>  <SCORE.INTER.POLAR>
-1.11845

>  <SCORE.INTER.REPUL>
0

>  <SCORE.INTER.ROT>
0

>  <SCORE.INTER.VDW>
-26.8952

>  <SCORE.INTER.norm>
-1.33147

>  <SCORE.INTRA>
0

>  <SCORE.INTRA.DIHEDRAL>
0

>  <SCORE.INTRA.DIHEDRAL.0>
0

>  <SCORE.INTRA.POLAR>
0

>  <SCORE.INTRA.POLAR.0>
0

>  <SCORE.INTRA.REPUL>
0

>  <SCORE.INTRA.REPUL.0>
0

>  <SCORE.INTRA.VDW>
0

>  <SCORE.INTRA.VDW.0>
0

>  <SCORE.INTRA.norm>
0

>  <SCORE.RESTR>
0

>  <SCORE.RESTR.CAVITY>
0

>  <SCORE.RESTR.norm>
0

>  <SCORE.SYSTEM>
1.24004

>  <SCORE.SYSTEM.CONST>
0

>  <SCORE.SYSTEM.DIHEDRAL>
2.03132

>  <SCORE.SYSTEM.POLAR>
-0.606506

>  <SCORE.SYSTEM.REPUL>
0.8

>  <SCORE.SYSTEM.VDW>
-1.7135

>  <SCORE.SYSTEM.norm>
0.0652653

>  <SCORE.heavy>
19

>  <SCORE.norm>
-1.26621

$$$$
HMD.pdb
  rDOCK(R)          3D
libRbt.so/2013.1/901 2013/11/27
 24 26  0  0  0  0  0  0  0  0999 V2000
   -3.7490   34.0356   13.0315 Br  0  0  0  0  0  0
   -6.2266   29.3324   12.3854 O   0  0  0  0  0  0
   -1.0399   28.4422    7.2830 O   0  0  0  0  0  0
   -4.5584   31.4631   12.3951 N   0  0  0  0  0  0
   -4.7339   27.9900   11.2836 N   0  0  0  0  0  0
    0.2866   30.3173    7.4053 N   0  0  0  0  0  0
   -0.8468   31.4708    8.9631 N   0  0  0  0  0  0
    1.0826   32.4278    8.0867 N   0  0  0  0  0  0
   -3.7394   32.4614   12.0573 C   0  0  0  0  0  0
   -2.9738   32.1285   10.9786 C   0  0  0  0  0  0
   -3.3414   30.8029   10.6232 C   0  0  0  0  0  0
   -4.3595   30.4264   11.5527 C   0  0  0  0  0  0
   -5.1620   29.2138   11.7646 C   0  0  0  0  0  0
   -3.5054   27.6823   10.5314 C   0  0  0  0  0  0
   -3.3391   28.5219    9.2777 C   0  0  0  0  0  0
   -2.7085   29.8845    9.5508 C   0  0  0  0  0  0
   -1.5680   30.2737    8.8400 C   0  0  0  0  0  0
   -0.7743   29.5551    7.7632 C   0  0  0  0  0  0
    0.2172   31.4336    8.1400 C   0  0  0  0  0  0
   -5.2035   31.4798   13.1385 H   0  0  0  0  0  0
   -5.3266   27.2258   11.4676 H   0  0  0  0  0  0
   -1.0819   32.2195    9.5576 H   0  0  0  0  0  0
    1.8534   32.3774    7.4763 H   0  0  0  0  0  0
    0.9577   33.2202    8.6574 H   0  0  0  0  0  0
  1  9  1  0  0  0
  2 13  2  0  0  0
  3 18  2  0  0  0
  4  9  1  0  0  0
  4 12  1  0  0  0
  4 20  1  0  0  0
  5 13  1  0  0  0
  5 14  1  0  0  0
  5 21  1  0  0  0
  6 18  1  0  0  0
  6 19  2  0  0  0
  7 17  1  0  0  0
  7 19  1  0  0  0
  7 22  1  0  0  0
  8 19  1  0  0  0
  8 23  1  0  0  0
  8 24  1  0  0  0
  9 10  2  0  0  0
 10 11  1  0  0  0
 11 12  2  0  0  0
 11 16  1  0  0  0
 12 13  1  0  0  0
 14 15  1  0  0  0
 15 16  1  0  0  0
 16 17  2  0  0  0
 17 18  1  0  0  0
M  END
>  <CHROM.0>
157.35678577,57.26602247,60.63219257,-4.17026523,-168.83350719,-61.11066012

>  <CHROM.1>
-2.89911737,31.13516074,10.69307104,-2.30600554,-0.68232625,-2.66270854

>  <FORMUL>
      HMD    C11 H10 Br1 N5 O2

>  <HET>
 HMD  A 400      19

>  <HETNAM>
     HMD 4-(5-AMINO-4-OXO-4H-PYRAZOL-3-YL)-2-BROMO-4,5,6,7-TETRA
   2 HMD HYDRO-3AH-PYRROLO[2,3-C]AZEPIN-8-ONE

>  <HETSYN>
     HMD HYMENIALDISINE

>  <Name>
HMD.pdb

>  <RI>
2.03259e+07

>  <Rbt.Current_Directory>
/home/malgorzata/Desktop/rDOCK_IFD/Wyniki/2a_CDK2

>  <Rbt.Executable>
rbdock ($Id: //depot/dev/client3/rdock/2013.1/src/exe/rbdock.cxx#4 $)

>  <Rbt.Library>
libRbt.so (2013.1, Build901 2013/11/27)

>  <Rbt.Parameter_File>
/home/malgorzata/Desktop/rDock_2013.1_src/data/scripts/soft_docking.prm

>  <Rbt.Receptor>
cavity.prm

>  <SCORE>
-27.8584

>  <SCORE.INTER>
-29.1907

>  <SCORE.INTER.CONST>
1

>  <SCORE.INTER.POLAR>
-0.886263

>  <SCORE.INTER.REPUL>
0

>  <SCORE.INTER.ROT>
0

>  <SCORE.INTER.VDW>
-31.5774

>  <SCORE.INTER.norm>
-1.53635

>  <SCORE.INTRA>
0

>  <SCORE.INTRA.DIHEDRAL>
0

>  <SCORE.INTRA.DIHEDRAL.0>
0

>  <SCORE.INTRA.POLAR>
0

>  <SCORE.INTRA.POLAR.0>
0

>  <SCORE.INTRA.REPUL>
0

>  <SCORE.INTRA.REPUL.0>
0

>  <SCORE.INTRA.VDW>
0

>  <SCORE.INTRA.VDW.0>
0

>  <SCORE.INTRA.norm>
0

>  <SCORE.RESTR>
0

>  <SCORE.RESTR.CAVITY>
0

>  <SCORE.RESTR.norm>
0

>  <SCORE.SYSTEM>
1.33231

>  <SCORE.SYSTEM.CONST>
0

>  <SCORE.SYSTEM.DIHEDRAL>
2.03026

>  <SCORE.SYSTEM.POLAR>
-0.539285

>  <SCORE.SYSTEM.REPUL>
0.8

>  <SCORE.SYSTEM.VDW>
-1.84925

>  <SCORE.SYSTEM.norm>
0.0701214

>  <SCORE.heavy>
19

>  <SCORE.norm>
-1.46623

$$$$
HMD.pdb
  rDOCK(R)          3D
libRbt.so/2013.1/901 2013/11/27
 24 26  0  0  0  0  0  0  0  0999 V2000
   -3.3001   34.1580   12.9672 Br  0  0  0  0  0  0
   -5.9231   29.5674   12.1174 O   0  0  0  0  0  0
   -1.2296   29.0932    6.5071 O   0  0  0  0  0  0
   -4.2164   31.6666   12.1724 N   0  0  0  0  0  0
   -4.5624   28.3152   10.7664 N   0  0  0  0  0  0
    0.1414   30.9319    6.6811 N   0  0  0  0  0  0
   -0.8248   31.9487    8.4345 N   0  0  0  0  0  0
    1.0387   32.9592    7.4792 N   0  0  0  0  0  0
   -3.4099   32.6818   11.8554 C   0  0  0  0  0  0
   -2.7503   32.4417   10.6859 C   0  0  0  0  0  0
   -3.1756   31.1599   10.2446 C   0  0  0  0  0  0
   -4.1148   30.7108   11.2236 C   0  0  0  0  0  0
   -4.9205   29.4940   11.3947 C   0  0  0  0  0  0
   -3.4124   28.0638    9.8812 C   0  0  0  0  0  0
   -3.3404   29.0148    8.7003 C   0  0  0  0  0  0
   -2.6597   30.3379    9.0394 C   0  0  0  0  0  0
   -1.5790   30.7776    8.2674 C   0  0  0  0  0  0
   -0.8992   30.1529    7.0617 C   0  0  0  0  0  0
    0.1609   31.9753    7.5187 C   0  0  0  0  0  0
   -4.7925   31.6219   12.9694 H   0  0  0  0  0  0
   -5.1523   27.5447   10.9321 H   0  0  0  0  0  0
   -0.9905   32.6414    9.1141 H   0  0  0  0  0  0
    1.7510   32.9564    6.7996 H   0  0  0  0  0  0
    0.9815   33.6962    8.1293 H   0  0  0  0  0  0
  1  9  1  0  0  0
  2 13  2  0  0  0
  3 18  2  0  0  0
  4  9  1  0  0  0
  4 12  1  0  0  0
  4 20  1  0  0  0
  5 13  1  0  0  0
  5 14  1  0  0  0
  5 21  1  0  0  0
  6 18  1  0  0  0
  6 19  2  0  0  0
  7 17  1  0  0  0
  7 19  1  0  0  0
  7 22  1  0  0  0
  8 19  1  0  0  0
  8 23  1  0  0  0
  8 24  1  0  0  0
  9 10  2  0  0  0
 10 11  1  0  0  0
 11 12  2  0  0  0
 11 16  1  0  0  0
 12 13  1  0  0  0
 14 15  1  0  0  0
 15 16  1  0  0  0
 16 17  2  0  0  0
 17 18  1  0  0  0
M  END
>  <CHROM.0>
-75.97764895,-130.78718103,-154.26487210,106.09488211,152.16686427,-61.11066012

>  <CHROM.1>
-2.72203219,31.47854151,10.30452094,-2.22464637,-0.75001171,-2.51614202

>  <FORMUL>
      HMD    C11 H10 Br1 N5 O2

>  <HET>
 HMD  A 400      19

>  <HETNAM>
     HMD 4-(5-AMINO-4-OXO-4H-PYRAZOL-3-YL)-2-BROMO-4,5,6,7-TETRA
   2 HMD HYDRO-3AH-PYRROLO[2,3-C]AZEPIN-8-ONE

>  <HETSYN>
     HMD HYMENIALDISINE

>  <Name>
HMD.pdb

>  <RI>
2.03259e+07

>  <Rbt.Current_Directory>
/home/malgorzata/Desktop/rDOCK_IFD/Wyniki/2a_CDK2

>  <Rbt.Executable>
rbdock ($Id: //depot/dev/client3/rdock/2013.1/src/exe/rbdock.cxx#4 $)

>  <Rbt.Library>
libRbt.so (2013.1, Build901 2013/11/27)

>  <Rbt.Parameter_File>
/home/malgorzata/Desktop/rDock_2013.1_src/data/scripts/soft_docking.prm

>  <Rbt.Receptor>
cavity.prm

>  <SCORE>
-29.6954

>  <SCORE.INTER>
-30.4626

>  <SCORE.INTER.CONST>
1

>  <SCORE.INTER.POLAR>
-0.959961

>  <SCORE.INTER.REPUL>
0

>  <SCORE.INTER.ROT>
0

>  <SCORE.INTER.VDW>
-32.5987

>  <SCORE.INTER.norm>
-1.6033

>  <SCORE.INTRA>
0

>  <SCORE.INTRA.DIHEDRAL>
0

>  <SCORE.INTRA.DIHEDRAL.0>
0

>  <SCORE.INTRA.POLAR>
0

>  <SCORE.INTRA.POLAR.0>
0

>  <SCORE.INTRA.REPUL>
0

>  <SCORE.INTRA.REPUL.0>
0

>  <SCORE.INTRA.VDW>
0

>  <SCORE.INTRA.VDW.0>
0

>  <SCORE.INTRA.norm>
0

>  <SCORE.RESTR>
0

>  <SCORE.RESTR.CAVITY>
0

>  <SCORE.RESTR.norm>
0

>  <SCORE.SYSTEM>
0.767211

>  <SCORE.SYSTEM.CONST>
0

>  <SCORE.SYSTEM.DIHEDRAL>
2.03063

>  <SCORE.SYSTEM.POLAR>
-0.619677

>  <SCORE.SYSTEM.REPUL>
0.8

>  <SCORE.SYSTEM.VDW>
-2.1412

>  <SCORE.SYSTEM.norm>
0.0403795

>  <SCORE.heavy>
19

>  <SCORE.norm>
-1.56292

$$$$
HMD.pdb
  rDOCK(R)          3D
libRbt.so/2013.1/901 2013/11/27
 24 26  0  0  0  0  0  0  0  0999 V2000
   -5.3277   26.1848   11.7904 Br  0  0  0  0  0  0
   -1.6320   27.8322    8.2827 O   0  0  0  0  0  0
   -2.9764   34.3100   11.4386 O   0  0  0  0  0  0
   -3.4101   27.5166   10.2980 N   0  0  0  0  0  0
   -0.8902   29.8528    9.0647 N   0  0  0  0  0  0
   -4.4953   33.8870   13.1133 N   0  0  0  0  0  0
   -4.8357   31.6960   12.7587 N   0  0  0  0  0  0
   -5.9860   32.7091   14.5071 N   0  0  0  0  0  0
   -4.4030   27.6668   11.1773 C   0  0  0  0  0  0
   -4.5781   28.9792   11.5049 C   0  0  0  0  0  0
   -3.6002   29.7061   10.7740 C   0  0  0  0  0  0
   -2.8855   28.7286   10.0152 C   0  0  0  0  0  0
   -1.7628   28.7799    9.0686 C   0  0  0  0  0  0
   -0.9078   31.0486    9.9244 C   0  0  0  0  0  0
   -2.2297   31.7943    9.8942 C   0  0  0  0  0  0
   -3.2646   31.2144   10.8541 C   0  0  0  0  0  0
   -3.8804   32.0485   11.7935 C   0  0  0  0  0  0
   -3.7138   33.5332   12.0651 C   0  0  0  0  0  0
   -5.1337   32.7772   13.5025 C   0  0  0  0  0  0
   -3.1088   26.6604    9.9170 H   0  0  0  0  0  0
   -0.1636   29.8120    8.4018 H   0  0  0  0  0  0
   -5.2261   30.7996   12.8737 H   0  0  0  0  0  0
   -6.1879   33.5141   15.0368 H   0  0  0  0  0  0
   -6.4201   31.8533   14.7272 H   0  0  0  0  0  0
  1  9  1  0  0  0
  2 13  2  0  0  0
  3 18  2  0  0  0
  4  9  1  0  0  0
  4 12  1  0  0  0
  4 20  1  0  0  0
  5 13  1  0  0  0
  5 14  1  0  0  0
  5 21  1  0  0  0
  6 18  1  0  0  0
  6 19  2  0  0  0
  7 17  1  0  0  0
  7 19  1  0  0  0
  7 22  1  0  0  0
  8 19  1  0  0  0
  8 23  1  0  0  0
  8 24  1  0  0  0
  9 10  2  0  0  0
 10 11  1  0  0  0
 11 12  2  0  0  0
 11 16  1  0  0  0
 12 13  1  0  0  0
 14 15  1  0  0  0
 15 16  1  0  0  0
 16 17  2  0  0  0
 17 18  1  0  0  0
M  END
>  <CHROM.0>
-175.17190875,-142.05136481,-26.60834872,-78.53282545,178.24104129,-61.11066012

>  <CHROM.1>
-3.83523837,29.66521090,11.27800734,1.70275743,-0.74044357,-2.87384598

>  <FORMUL>
      HMD    C11 H10 Br1 N5 O2

>  <HET>
 HMD  A 400      19

>  <HETNAM>
     HMD 4-(5-AMINO-4-OXO-4H-PYRAZOL-3-YL)-2-BROMO-4,5,6,7-TETRA
   2 HMD HYDRO-3AH-PYRROLO[2,3-C]AZEPIN-8-ONE

>  <HETSYN>
     HMD HYMENIALDISINE

>  <Name>
HMD.pdb

>  <RI>
2.03259e+07

>  <Rbt.Current_Directory>
/home/malgorzata/Desktop/rDOCK_IFD/Wyniki/2a_CDK2

>  <Rbt.Executable>
rbdock ($Id: //depot/dev/client3/rdock/2013.1/src/exe/rbdock.cxx#4 $)

>  <Rbt.Library>
libRbt.so (2013.1, Build901 2013/11/27)

>  <Rbt.Parameter_File>
/home/malgorzata/Desktop/rDock_2013.1_src/data/scripts/soft_docking.prm

>  <Rbt.Receptor>
cavity.prm

>  <SCORE>
-26.5776

>  <SCORE.INTER>
-27.7767

>  <SCORE.INTER.CONST>
1

>  <SCORE.INTER.POLAR>
-0.684633

>  <SCORE.INTER.REPUL>
0

>  <SCORE.INTER.ROT>
0

>  <SCORE.INTER.VDW>
-30.8489

>  <SCORE.INTER.norm>
-1.46193

>  <SCORE.INTRA>
0

>  <SCORE.INTRA.DIHEDRAL>
0

>  <SCORE.INTRA.DIHEDRAL.0>
0

>  <SCORE.INTRA.POLAR>
0

>  <SCORE.INTRA.POLAR.0>
0

>  <SCORE.INTRA.REPUL>
0

>  <SCORE.INTRA.REPUL.0>
0

>  <SCORE.INTRA.VDW>
0

>  <SCORE.INTRA.VDW.0>
0

>  <SCORE.INTRA.norm>
0

>  <SCORE.RESTR>
0

>  <SCORE.RESTR.CAVITY>
0

>  <SCORE.RESTR.norm>
0

>  <SCORE.SYSTEM>
1.19908

>  <SCORE.SYSTEM.CONST>
0

>  <SCORE.SYSTEM.DIHEDRAL>
2.03286

>  <SCORE.SYSTEM.POLAR>
-0.606291

>  <SCORE.SYSTEM.REPUL>
0.8

>  <SCORE.SYSTEM.VDW>
-1.75596

>  <SCORE.SYSTEM.norm>
0.0631096

>  <SCORE.heavy>
19

>  <SCORE.norm>
-1.39882

$$$$
HMD.pdb
  rDOCK(R)          3D
libRbt.so/2013.1/901 2013/11/27
 24 26  0  0  0  0  0  0  0  0999 V2000
    5.7491   28.0150    4.3094 Br  0  0  0  0  0  0
    1.6575   31.4681    4.1997 O   0  0  0  0  0  0
   -0.4257   27.6325   10.0885 O   0  0  0  0  0  0
    3.5280   29.6021    4.7849 N   0  0  0  0  0  0
    0.7197   31.3867    6.2874 N   0  0  0  0  0  0
    1.2453   26.0955   10.4574 N   0  0  0  0  0  0
    2.5547   26.5415    8.6887 N   0  0  0  0  0  0
    3.2366   24.8722   10.1567 N   0  0  0  0  0  0
    4.1715   28.4921    5.1526 C   0  0  0  0  0  0
    3.5160   27.8535    6.1640 C   0  0  0  0  0  0
    2.3717   28.6428    6.4579 C   0  0  0  0  0  0
    2.4218   29.7426    5.5469 C   0  0  0  0  0  0
    1.5747   30.9189    5.3062 C   0  0  0  0  0  0
    0.5032   30.8516    7.6424 C   0  0  0  0  0  0
    0.1291   29.3805    7.6578 C   0  0  0  0  0  0
    1.3412   28.4553    7.5969 C   0  0  0  0  0  0
    1.5065   27.4667    8.5729 C   0  0  0  0  0  0
    0.6492   27.0999    9.7715 C   0  0  0  0  0  0
    2.3703   25.7994    9.7961 C   0  0  0  0  0  0
    3.8136   30.2190    4.0729 H   0  0  0  0  0  0
    0.1870   32.1797    6.0494 H   0  0  0  0  0  0
    3.3063   26.4497    8.0595 H   0  0  0  0  0  0
    3.0796   24.3420   10.9713 H   0  0  0  0  0  0
    4.0400   24.7105    9.6112 H   0  0  0  0  0  0
  1  9  1  0  0  0
  2 13  2  0  0  0
  3 18  2  0  0  0
  4  9  1  0  0  0
  4 12  1  0  0  0
  4 20  1  0  0  0
  5 13  1  0  0  0
  5 14  1  0  0  0
  5 21  1  0  0  0
  6 18  1  0  0  0
  6 19  2  0  0  0
  7 17  1  0  0  0
  7 19  1  0  0  0
  7 22  1  0  0  0
  8 19  1  0  0  0
  8 23  1  0  0  0
  8 24  1  0  0  0
  9 10  2  0  0  0
 10 11  1  0  0  0
 11 12  2  0  0  0
 11 16  1  0  0  0
 12 13  1  0  0  0
 14 15  1  0  0  0
 15 16  1  0  0  0
 16 17  2  0  0  0
 17 18  1  0  0  0
M  END
>  <CHROM.0>
170.46564278,29.85694615,99.74694823,-91.86504393,139.74285576,-61.11066012

>  <CHROM.1>
2.78704457,28.35957565,6.69919382,-0.82160396,-0.59062739,2.36123185

>  <FORMUL>
      HMD    C11 H10 Br1 N5 O2

>  <HET>
 HMD  A 400      19

>  <HETNAM>
     HMD 4-(5-AMINO-4-OXO-4H-PYRAZOL-3-YL)-2-BROMO-4,5,6,7-TETRA
   2 HMD HYDRO-3AH-PYRROLO[2,3-C]AZEPIN-8-ONE

>  <HETSYN>
     HMD HYMENIALDISINE

>  <Name>
HMD.pdb

>  <RI>
2.03259e+07

>  <Rbt.Current_Directory>
/home/malgorzata/Desktop/rDOCK_IFD/Wyniki/2a_CDK2

>  <Rbt.Executable>
rbdock ($Id: //depot/dev/client3/rdock/2013.1/src/exe/rbdock.cxx#4 $)

>  <Rbt.Library>
libRbt.so (2013.1, Build901 2013/11/27)

>  <Rbt.Parameter_File>
/home/malgorzata/Desktop/rDock_2013.1_src/data/scripts/soft_docking.prm

>  <Rbt.Receptor>
cavity.prm

>  <SCORE>
-21.9724

>  <SCORE.INTER>
-24.0711

>  <SCORE.INTER.CONST>
1

>  <SCORE.INTER.POLAR>
-2.00599

>  <SCORE.INTER.REPUL>
0

>  <SCORE.INTER.ROT>
0

>  <SCORE.INTER.VDW>
-22.6507

>  <SCORE.INTER.norm>
-1.2669

>  <SCORE.INTRA>
0

>  <SCORE.INTRA.DIHEDRAL>
0

>  <SCORE.INTRA.DIHEDRAL.0>
0

>  <SCORE.INTRA.POLAR>
0

>  <SCORE.INTRA.POLAR.0>
0

>  <SCORE.INTRA.REPUL>
0

>  <SCORE.INTRA.REPUL.0>
0

>  <SCORE.INTRA.VDW>
0

>  <SCORE.INTRA.VDW.0>
0

>  <SCORE.INTRA.norm>
0

>  <SCORE.RESTR>
0.971428

>  <SCORE.RESTR.CAVITY>
0.194286

>  <SCORE.RESTR.norm>
0.0511278

>  <SCORE.SYSTEM>
1.12728

>  <SCORE.SYSTEM.CONST>
0

>  <SCORE.SYSTEM.DIHEDRAL>
2.02325

>  <SCORE.SYSTEM.POLAR>
-0.619677

>  <SCORE.SYSTEM.REPUL>
0.8

>  <SCORE.SYSTEM.VDW>
-1.77744

>  <SCORE.SYSTEM.norm>
0.0593307

>  <SCORE.heavy>
19

>  <SCORE.norm>
-1.15644

$$$$
HMD.pdb
  rDOCK(R)          3D
libRbt.so/2013.1/901 2013/11/27
 24 26  0  0  0  0  0  0  0  0999 V2000
   -6.0440   31.7916   12.5738 Br  0  0  0  0  0  0
   -5.6559   26.4823   13.1545 O   0  0  0  0  0  0
   -0.7817   27.2567    7.7349 O   0  0  0  0  0  0
   -5.3685   29.1043   12.5502 N   0  0  0  0  0  0
   -3.6782   25.8917   12.1623 N   0  0  0  0  0  0
   -0.6491   29.5172    7.3309 N   0  0  0  0  0  0
   -2.2220   30.2411    8.7605 N   0  0  0  0  0  0
   -1.0913   31.8262    7.4895 N   0  0  0  0  0  0
   -5.2020   30.2740   11.9292 C   0  0  0  0  0  0
   -4.3758   30.1476   10.8514 C   0  0  0  0  0  0
   -3.9857   28.7821   10.8065 C   0  0  0  0  0  0
   -4.6506   28.1584   11.9070 C   0  0  0  0  0  0
   -4.6896   26.7915   12.4449 C   0  0  0  0  0  0
   -2.4728   26.0992   11.3418 C   0  0  0  0  0  0
   -2.7755   26.5924    9.9384 C   0  0  0  0  0  0
   -2.9620   28.1052    9.8642 C   0  0  0  0  0  0
   -2.2001   28.8524    8.9594 C   0  0  0  0  0  0
   -1.1458   28.4224    7.9548 C   0  0  0  0  0  0
   -1.2992   30.5710    7.8382 C   0  0  0  0  0  0
   -5.9251   28.9551   13.3484 H   0  0  0  0  0  0
   -3.7767   24.9970   12.5609 H   0  0  0  0  0  0
   -2.8181   30.8739    9.2224 H   0  0  0  0  0  0
   -0.4104   32.0425    6.8121 H   0  0  0  0  0  0
   -1.6171   32.5464    7.9066 H   0  0  0  0  0  0
  1  9  1  0  0  0
  2 13  2  0  0  0
  3 18  2  0  0  0
  4  9  1  0  0  0
  4 12  1  0  0  0
  4 20  1  0  0  0
  5 13  1  0  0  0
  5 14  1  0  0  0
  5 21  1  0  0  0
  6 18  1  0  0  0
  6 19  2  0  0  0
  7 17  1  0  0  0
  7 19  1  0  0  0
  7 22  1  0  0  0
  8 19  1  0  0  0
  8 23  1  0  0  0
  8 24  1  0  0  0
  9 10  2  0  0  0
 10 11  1  0  0  0
 11 12  2  0  0  0
 11 16  1  0  0  0
 12 13  1  0  0  0
 14 15  1  0  0  0
 15 16  1  0  0  0
 16 17  2  0  0  0
 17 18  1  0  0  0
M  END
>  <CHROM.0>
-127.79791816,-138.10850861,-110.98625951,104.45405514,125.37868347,-61.11066012

>  <CHROM.1>
-3.78639907,29.30051942,10.75689541,-3.05569719,-0.80952567,2.86727755

>  <FORMUL>
      HMD    C11 H10 Br1 N5 O2

>  <HET>
 HMD  A 400      19

>  <HETNAM>
     HMD 4-(5-AMINO-4-OXO-4H-PYRAZOL-3-YL)-2-BROMO-4,5,6,7-TETRA
   2 HMD HYDRO-3AH-PYRROLO[2,3-C]AZEPIN-8-ONE

>  <HETSYN>
     HMD HYMENIALDISINE

>  <Name>
HMD.pdb

>  <RI>
2.03259e+07

>  <Rbt.Current_Directory>
/home/malgorzata/Desktop/rDOCK_IFD/Wyniki/2a_CDK2

>  <Rbt.Executable>
rbdock ($Id: //depot/dev/client3/rdock/2013.1/src/exe/rbdock.cxx#4 $)

>  <Rbt.Library>
libRbt.so (2013.1, Build901 2013/11/27)

>  <Rbt.Parameter_File>
/home/malgorzata/Desktop/rDock_2013.1_src/data/scripts/soft_docking.prm

>  <Rbt.Receptor>
cavity.prm

>  <SCORE>
-25.4057

>  <SCORE.INTER>
-26.4641

>  <SCORE.INTER.CONST>
1

>  <SCORE.INTER.POLAR>
-1.11907

>  <SCORE.INTER.REPUL>
0

>  <SCORE.INTER.ROT>
0

>  <SCORE.INTER.VDW>
-28.0593

>  <SCORE.INTER.norm>
-1.39285

>  <SCORE.INTRA>
0

>  <SCORE.INTRA.DIHEDRAL>
0

>  <SCORE.INTRA.DIHEDRAL.0>
0

>  <SCORE.INTRA.POLAR>
0

>  <SCORE.INTRA.POLAR.0>
0

>  <SCORE.INTRA.REPUL>
0

>  <SCORE.INTRA.REPUL.0>
0

>  <SCORE.INTRA.VDW>
0

>  <SCORE.INTRA.VDW.0>
0

>  <SCORE.INTRA.norm>
0

>  <SCORE.RESTR>
0

>  <SCORE.RESTR.CAVITY>
0

>  <SCORE.RESTR.norm>
0

>  <SCORE.SYSTEM>
1.05842

>  <SCORE.SYSTEM.CONST>
0

>  <SCORE.SYSTEM.DIHEDRAL>
2.03031

>  <SCORE.SYSTEM.POLAR>
-0.562965

>  <SCORE.SYSTEM.REPUL>
0.8

>  <SCORE.SYSTEM.VDW>
-2.04266

>  <SCORE.SYSTEM.norm>
0.0557062

>  <SCORE.heavy>
19

>  <SCORE.norm>
-1.33714

$$$$
HMD.pdb
  rDOCK(R)          3D
libRbt.so/2013.1/901 2013/11/27
 24 26  0  0  0  0  0  0  0  0999 V2000
   -5.5998   32.1961   13.1801 Br  0  0  0  0  0  0
   -5.4846   26.8563   12.7944 O   0  0  0  0  0  0
   -0.8178   28.3557    7.3444 O   0  0  0  0  0  0
   -5.0776   29.5275   12.6472 N   0  0  0  0  0  0
   -3.5888   26.3596   11.6097 N   0  0  0  0  0  0
   -0.5766   30.6431    7.3386 N   0  0  0  0  0  0
   -2.0421   31.1733    8.9551 N   0  0  0  0  0  0
   -0.8814   32.9048    7.9251 N   0  0  0  0  0  0
   -4.8733   30.7802   12.2342 C   0  0  0  0  0  0
   -4.1037   30.8095   11.1085 C   0  0  0  0  0  0
   -3.7931   29.4572   10.8030 C   0  0  0  0  0  0
   -4.4428   28.6789   11.8101 C   0  0  0  0  0  0
   -4.5347   27.2413   12.1000 C   0  0  0  0  0  0
   -2.4108   26.6532   10.7756 C   0  0  0  0  0  0
   -2.7469   27.4032    9.4992 C   0  0  0  0  0  0
   -2.8514   28.9119    9.7029 C   0  0  0  0  0  0
   -2.0893   29.7720    8.9048 C   0  0  0  0  0  0
   -1.1060   29.4791    7.7853 C   0  0  0  0  0  0
   -1.1438   31.6187    8.0577 C   0  0  0  0  0  0
   -5.6060   29.2645   13.4351 H   0  0  0  0  0  0
   -3.7195   25.4137   11.8491 H   0  0  0  0  0  0
   -2.5809   31.7408    9.5525 H   0  0  0  0  0  0
   -0.2199   33.2063    7.2612 H   0  0  0  0  0  0
   -1.3471   33.5629    8.4900 H   0  0  0  0  0  0
  1  9  1  0  0  0
  2 13  2  0  0  0
  3 18  2  0  0  0
  4  9  1  0  0  0
  4 12  1  0  0  0
  4 20  1  0  0  0
  5 13  1  0  0  0
  5 14  1  0  0  0
  5 21  1  0  0  0
  6 18  1  0  0  0
  6 19  2  0  0  0
  7 17  1  0  0  0
  7 19  1  0  0  0
  7 22  1  0  0  0
  8 19  1  0  0  0
  8 23  1  0  0  0
  8 24  1  0  0  0
  9 10  2  0  0  0
 10 11  1  0  0  0
 11 12  2  0  0  0
 11 16  1  0  0  0
 12 13  1  0  0  0
 14 15  1  0  0  0
 15 16  1  0  0  0
 16 17  2  0  0  0
 17 18  1  0  0  0
M  END
>  <CHROM.0>
127.27346707,-81.41807962,-109.16130845,-45.11386926,138.25458068,-61.11066012

>  <CHROM.1>
-3.56740629,29.96605798,10.83495267,-2.99076740,-0.86609416,3.09427091

>  <FORMUL>
      HMD    C11 H10 Br1 N5 O2

>  <HET>
 HMD  A 400      19

>  <HETNAM>
     HMD 4-(5-AMINO-4-OXO-4H-PYRAZOL-3-YL)-2-BROMO-4,5,6,7-TETRA
   2 HMD HYDRO-3AH-PYRROLO[2,3-C]AZEPIN-8-ONE

>  <HETSYN>
     HMD HYMENIALDISINE

>  <Name>
HMD.pdb

>  <RI>
2.03259e+07

>  <Rbt.Current_Directory>
/home/malgorzata/Desktop/rDOCK_IFD/Wyniki/2a_CDK2

>  <Rbt.Executable>
rbdock ($Id: //depot/dev/client3/rdock/2013.1/src/exe/rbdock.cxx#4 $)

>  <Rbt.Library>
libRbt.so (2013.1, Build901 2013/11/27)

>  <Rbt.Parameter_File>
/home/malgorzata/Desktop/rDock_2013.1_src/data/scripts/soft_docking.prm

>  <Rbt.Receptor>
cavity.prm

>  <SCORE>
-25.8821

>  <SCORE.INTER>
-28.3104

>  <SCORE.INTER.CONST>
1

>  <SCORE.INTER.POLAR>
-1.23322

>  <SCORE.INTER.REPUL>
0

>  <SCORE.INTER.ROT>
0

>  <SCORE.INTER.VDW>
-29.5175

>  <SCORE.INTER.norm>
-1.49002

>  <SCORE.INTRA>
0

>  <SCORE.INTRA.DIHEDRAL>
0

>  <SCORE.INTRA.DIHEDRAL.0>
0

>  <SCORE.INTRA.POLAR>
0

>  <SCORE.INTRA.POLAR.0>
0

>  <SCORE.INTRA.REPUL>
0

>  <SCORE.INTRA.REPUL.0>
0

>  <SCORE.INTRA.VDW>
0

>  <SCORE.INTRA.VDW.0>
0

>  <SCORE.INTRA.norm>
0

>  <SCORE.RESTR>
1.47427

>  <SCORE.RESTR.CAVITY>
0.294855

>  <SCORE.RESTR.norm>
0.0775934

>  <SCORE.SYSTEM>
0.954041

>  <SCORE.SYSTEM.CONST>
0

>  <SCORE.SYSTEM.DIHEDRAL>
2.02209

>  <SCORE.SYSTEM.POLAR>
-0.619677

>  <SCORE.SYSTEM.REPUL>
0.8

>  <SCORE.SYSTEM.VDW>
-1.9501

>  <SCORE.SYSTEM.norm>
0.0502127

>  <SCORE.heavy>
19

>  <SCORE.norm>
-1.36222

$$$$
