S58.pdb
  rDOCK(R)          3D
libRbt.so/2013.1/901 2013/11/27
 28 30  0  0  0  0  0  0  0  0999 V2000
   27.6776   28.1953   28.0980 C   0  0  0  0  0  0
   27.5984   29.4986   28.4846 C   0  0  0  0  0  0
   26.3630   27.8684   27.4733 C   0  0  0  0  0  0
   25.8738   26.5466   26.9616 C   0  0  0  0  0  0
   25.9587   31.2986   28.0299 C   0  0  0  0  0  0
   26.8235   32.1902   27.3827 C   0  0  0  0  0  0
   26.4338   33.5089   27.2012 C   0  0  0  0  0  0
   25.1686   33.9338   27.6681 C   0  0  0  0  0  0
   24.3032   33.0363   28.3158 C   0  0  0  0  0  0
   24.7038   31.7107   28.4994 C   0  0  0  0  0  0
   28.6770   30.2336   29.2135 C   0  0  0  0  0  0
   29.9381   29.6142   29.4056 C   0  0  0  0  0  0
   31.0089   30.3444   29.9540 C   0  0  0  0  0  0
   30.8304   31.6801   30.3040 C   0  0  0  0  0  0
   29.5805   32.2887   30.1455 C   0  0  0  0  0  0
   28.4964   31.5644   29.5961 C   0  0  0  0  0  0
   26.3629   29.9926   28.1321 N   0  0  0  0  0  0
   25.6277   28.9467   27.4926 N   0  0  0  0  0  0
   24.9599   36.0820   25.7474 N   0  0  0  0  0  0
   25.3570   36.5014   28.3297 O   0  0  0  0  0  0
   23.2340   35.7393   27.6972 O   0  0  0  0  0  0
   32.2910   32.6844   30.8198 Br  0  0  0  0  0  0
   25.5830   25.7379   28.0112 F   0  0  0  0  0  0
   26.7955   25.9996   26.1536 F   0  0  0  0  0  0
   24.7543   26.7647   26.2626 F   0  0  0  0  0  0
   24.6412   35.6620   27.4216 S   0  0  0  0  0  0
   25.7265   35.6881   25.2862 H   0  0  0  0  0  0
   24.3698   36.7077   25.2746 H   0  0  0  0  0  0
  1  3  1  0  0  0
  2  1  2  0  0  0
  2 17  1  0  0  0
  3 18  2  0  0  0
  3  4  1  0  0  0
  4 23  1  0  0  0
  4 25  1  0  0  0
  5 17  1  0  0  0
  5  6  2  0  0  0
  7  6  1  0  0  0
  8  7  2  0  0  0
  9 10  2  0  0  0
  9  8  1  0  0  0
 10  5  1  0  0  0
 11  2  1  0  0  0
 12 11  1  0  0  0
 13 12  2  0  0  0
 14 15  2  0  0  0
 14 13  1  0  0  0
 15 16  1  0  0  0
 16 11  2  0  0  0
 17 18  1  0  0  0
 19 28  1  0  0  0
 20 26  2  0  0  0
 22 14  1  0  0  0
 24  4  1  0  0  0
 26  8  1  0  0  0
 26 19  1  0  0  0
 26 21  2  0  0  0
 27 19  1  0  0  0
M  END
>  <CHROM.0>
87.88840333,-67.68990075,128.49558450

>  <CHROM.1>
73.36968945,44.48991407,7.34401321,47.60867086,-32.83404881,27.49705266,31.41427744
28.46741522,-2.67328470,-0.45060735,0.10444403

>  <FORMUL>
      S58    C16 H11 Br1 F3 N3 O2 S1

>  <HET>
 S58  A 701      28

>  <HETNAM>
     S58 1-PHENYLSULFONAMIDE-3-TRIFLUOROMETHYL-5-PARABROMOPHENYL
   2 S58 PYRAZOLE

>  <Name>
S58.pdb

>  <RI>
0

>  <Rbt.Current_Directory>
/home/malgorzata/Desktop/rDOCK_IFD/Wyniki/3b_COX2/IFD

>  <Rbt.Executable>
rbdock ($Id: //depot/dev/client3/rdock/2013.1/src/exe/rbdock.cxx#4 $)

>  <Rbt.Library>
libRbt.so (2013.1, Build901 2013/11/27)

>  <Rbt.Parameter_File>
/home/malgorzata/Desktop/rDock_2013.1_src/data/scripts/hard_docking.prm

>  <Rbt.Receptor>
cavity.prm

>  <SCORE>
-13.2821

>  <SCORE.INTER>
-7.32885

>  <SCORE.INTER.CONST>
1

>  <SCORE.INTER.POLAR>
-0.585433

>  <SCORE.INTER.REPUL>
0

>  <SCORE.INTER.ROT>
5

>  <SCORE.INTER.VDW>
-15.7384

>  <SCORE.INTER.norm>
-0.281879

>  <SCORE.INTRA>
-2.21927

>  <SCORE.INTRA.DIHEDRAL>
-6.84524

>  <SCORE.INTRA.DIHEDRAL.0>
18.1022

>  <SCORE.INTRA.POLAR>
0

>  <SCORE.INTRA.POLAR.0>
0

>  <SCORE.INTRA.REPUL>
0

>  <SCORE.INTRA.REPUL.0>
0

>  <SCORE.INTRA.VDW>
1.20335

>  <SCORE.INTRA.VDW.0>
-2.81782

>  <SCORE.INTRA.norm>
-0.0853566

>  <SCORE.RESTR>
0.0179095

>  <SCORE.RESTR.CAVITY>
0.0179095

>  <SCORE.RESTR.norm>
0.000688826

>  <SCORE.SYSTEM>
-3.75186

>  <SCORE.SYSTEM.CONST>
0

>  <SCORE.SYSTEM.DIHEDRAL>
1.0971

>  <SCORE.SYSTEM.POLAR>
-1.01137

>  <SCORE.SYSTEM.VDW>
-0.861769

>  <SCORE.SYSTEM.norm>
-0.144302

>  <SCORE.heavy>
26

>  <SCORE.norm>
-0.510849

$$$$
S58.pdb
  rDOCK(R)          3D
libRbt.so/2013.1/901 2013/11/27
 28 30  0  0  0  0  0  0  0  0999 V2000
   21.3026   24.6405   31.0278 C   0  0  0  0  0  0
   21.8909   25.7128   30.4290 C   0  0  0  0  0  0
   22.3159   23.5461   31.0043 C   0  0  0  0  0  0
   22.1638   22.1213   31.4463 C   0  0  0  0  0  0
   24.2195   26.1923   29.7344 C   0  0  0  0  0  0
   24.7886   26.9532   30.7634 C   0  0  0  0  0  0
   25.8875   27.7548   30.4923 C   0  0  0  0  0  0
   26.4200   27.7902   29.1830 C   0  0  0  0  0  0
   25.8474   27.0247   28.1534 C   0  0  0  0  0  0
   24.7379   26.2229   28.4323 C   0  0  0  0  0  0
   21.2133   27.0219   30.1799 C   0  0  0  0  0  0
   21.9038   28.0445   29.4809 C   0  0  0  0  0  0
   21.2324   29.2232   29.1066 C   0  0  0  0  0  0
   19.8851   29.3834   29.4193 C   0  0  0  0  0  0
   19.2058   28.3917   30.1355 C   0  0  0  0  0  0
   19.8705   27.2027   30.5179 C   0  0  0  0  0  0
   23.1732   25.3703   30.0645 N   0  0  0  0  0  0
   23.4024   24.0137   30.4527 N   0  0  0  0  0  0
   27.9297   30.1054   30.0245 N   0  0  0  0  0  0
   27.7540   29.3506   27.4944 O   0  0  0  0  0  0
   29.0439   28.0034   28.9118 O   0  0  0  0  0  0
   18.9634   30.8315   28.7403 Br  0  0  0  0  0  0
   20.8497   21.8504   31.6457 F   0  0  0  0  0  0
   22.8891   21.9066   32.5551 F   0  0  0  0  0  0
   22.6217   21.3351   30.4656 F   0  0  0  0  0  0
   27.8734   28.8302   28.8197 S   0  0  0  0  0  0
   27.0998   30.5248   30.3256 H   0  0  0  0  0  0
   28.7904   30.3950   30.3967 H   0  0  0  0  0  0
  1  3  1  0  0  0
  2  1  2  0  0  0
  2 17  1  0  0  0
  3 18  2  0  0  0
  3  4  1  0  0  0
  4 23  1  0  0  0
  4 25  1  0  0  0
  5 17  1  0  0  0
  5  6  2  0  0  0
  7  6  1  0  0  0
  8  7  2  0  0  0
  9 10  2  0  0  0
  9  8  1  0  0  0
 10  5  1  0  0  0
 11  2  1  0  0  0
 12 11  1  0  0  0
 13 12  2  0  0  0
 14 15  2  0  0  0
 14 13  1  0  0  0
 15 16  1  0  0  0
 16 11  2  0  0  0
 17 18  1  0  0  0
 19 28  1  0  0  0
 20 26  2  0  0  0
 22 14  1  0  0  0
 24  4  1  0  0  0
 26  8  1  0  0  0
 26 19  1  0  0  0
 26 21  2  0  0  0
 27 19  1  0  0  0
M  END
>  <CHROM.0>
101.76863593,72.39732784,125.36198064

>  <CHROM.1>
12.35224119,69.89088244,-176.54321140,-23.63614330,-38.93085090,22.95456012
27.10582081,29.76051792,0.55148797,-0.07910294,2.82744421

>  <FORMUL>
      S58    C16 H11 Br1 F3 N3 O2 S1

>  <HET>
 S58  A 701      28

>  <HETNAM>
     S58 1-PHENYLSULFONAMIDE-3-TRIFLUOROMETHYL-5-PARABROMOPHENYL
   2 S58 PYRAZOLE

>  <Name>
S58.pdb

>  <RI>
0

>  <Rbt.Current_Directory>
/home/malgorzata/Desktop/rDOCK_IFD/Wyniki/3b_COX2/IFD

>  <Rbt.Executable>
rbdock ($Id: //depot/dev/client3/rdock/2013.1/src/exe/rbdock.cxx#4 $)

>  <Rbt.Library>
libRbt.so (2013.1, Build901 2013/11/27)

>  <Rbt.Parameter_File>
/home/malgorzata/Desktop/rDock_2013.1_src/data/scripts/hard_docking.prm

>  <Rbt.Receptor>
cavity.prm

>  <SCORE>
-8.75414

>  <SCORE.INTER>
-8.26943

>  <SCORE.INTER.CONST>
1

>  <SCORE.INTER.POLAR>
0

>  <SCORE.INTER.REPUL>
0.00168543

>  <SCORE.INTER.ROT>
5

>  <SCORE.INTER.VDW>
-18.6779

>  <SCORE.INTER.norm>
-0.318055

>  <SCORE.INTRA>
-1.5662

>  <SCORE.INTRA.DIHEDRAL>
-3.06963

>  <SCORE.INTRA.DIHEDRAL.0>
18.1022

>  <SCORE.INTRA.POLAR>
0

>  <SCORE.INTRA.POLAR.0>
0

>  <SCORE.INTRA.REPUL>
0

>  <SCORE.INTRA.REPUL.0>
0

>  <SCORE.INTRA.VDW>
-0.0313837

>  <SCORE.INTRA.VDW.0>
-2.81782

>  <SCORE.INTRA.norm>
-0.0602384

>  <SCORE.RESTR>
2.73382

>  <SCORE.RESTR.CAVITY>
2.73382

>  <SCORE.RESTR.norm>
0.105147

>  <SCORE.SYSTEM>
-1.65233

>  <SCORE.SYSTEM.CONST>
0

>  <SCORE.SYSTEM.DIHEDRAL>
1.53963

>  <SCORE.SYSTEM.POLAR>
-0.485306

>  <SCORE.SYSTEM.REPUL>
0.0778772

>  <SCORE.SYSTEM.VDW>
-1.16149

>  <SCORE.SYSTEM.norm>
-0.0635512

>  <SCORE.heavy>
26

>  <SCORE.norm>
-0.336698

$$$$
S58.pdb
  rDOCK(R)          3D
libRbt.so/2013.1/901 2013/11/27
 28 30  0  0  0  0  0  0  0  0999 V2000
   20.5011   25.5596   31.2744 C   0  0  0  0  0  0
   21.0991   26.3061   30.3052 C   0  0  0  0  0  0
   21.3751   24.3678   31.4769 C   0  0  0  0  0  0
   21.1428   23.1768   32.3579 C   0  0  0  0  0  0
   23.3271   26.2036   29.2278 C   0  0  0  0  0  0
   24.5115   26.4252   29.9418 C   0  0  0  0  0  0
   25.6332   26.8946   29.2747 C   0  0  0  0  0  0
   25.5670   27.1393   27.8837 C   0  0  0  0  0  0
   24.3776   26.9147   27.1703 C   0  0  0  0  0  0
   23.2502   26.4462   27.8493 C   0  0  0  0  0  0
   20.5348   27.5695   29.7392 C   0  0  0  0  0  0
   19.2642   28.0243   30.1748 C   0  0  0  0  0  0
   18.7858   29.2837   29.7679 C   0  0  0  0  0  0
   19.5646   30.0871   28.9394 C   0  0  0  0  0  0
   20.8058   29.6318   28.4813 C   0  0  0  0  0  0
   21.2969   28.3671   28.8829 C   0  0  0  0  0  0
   22.2639   25.6827   29.9190 N   0  0  0  0  0  0
   22.4049   24.4829   30.6833 N   0  0  0  0  0  0
   28.4507   27.3071   27.9447 N   0  0  0  0  0  0
   26.9306   29.1566   26.8175 O   0  0  0  0  0  0
   27.0811   27.0959   25.7136 O   0  0  0  0  0  0
   19.0249   31.8169   28.5871 Br  0  0  0  0  0  0
   21.8469   23.3243   33.5079 F   0  0  0  0  0  0
   21.4838   22.0534   31.7073 F   0  0  0  0  0  0
   19.8390   23.1318   32.6537 F   0  0  0  0  0  0
   27.0405   27.7431   26.9948 S   0  0  0  0  0  0
   28.6384   27.7802   28.7791 H   0  0  0  0  0  0
   29.0475   26.5894   27.6413 H   0  0  0  0  0  0
  1  3  1  0  0  0
  2  1  2  0  0  0
  2 17  1  0  0  0
  3 18  2  0  0  0
  3  4  1  0  0  0
  4 23  1  0  0  0
  4 25  1  0  0  0
  5 17  1  0  0  0
  5  6  2  0  0  0
  7  6  1  0  0  0
  8  7  2  0  0  0
  9 10  2  0  0  0
  9  8  1  0  0  0
 10  5  1  0  0  0
 11  2  1  0  0  0
 12 11  1  0  0  0
 13 12  2  0  0  0
 14 15  2  0  0  0
 14 13  1  0  0  0
 15 16  1  0  0  0
 16 11  2  0  0  0
 17 18  1  0  0  0
 19 28  1  0  0  0
 20 26  2  0  0  0
 22 14  1  0  0  0
 24  4  1  0  0  0
 26  8  1  0  0  0
 26 19  1  0  0  0
 26 21  2  0  0  0
 27 19  1  0  0  0
M  END
>  <CHROM.0>
126.22360881,-68.19943239,128.73899598

>  <CHROM.1>
-99.81220895,107.97146320,-2.87558668,22.27438820,-72.34157339,22.29730705
27.37599507,29.33319542,2.56185155,0.38288969,-0.51246296

>  <FORMUL>
      S58    C16 H11 Br1 F3 N3 O2 S1

>  <HET>
 S58  A 701      28

>  <HETNAM>
     S58 1-PHENYLSULFONAMIDE-3-TRIFLUOROMETHYL-5-PARABROMOPHENYL
   2 S58 PYRAZOLE

>  <Name>
S58.pdb

>  <RI>
0

>  <Rbt.Current_Directory>
/home/malgorzata/Desktop/rDOCK_IFD/Wyniki/3b_COX2/IFD

>  <Rbt.Executable>
rbdock ($Id: //depot/dev/client3/rdock/2013.1/src/exe/rbdock.cxx#4 $)

>  <Rbt.Library>
libRbt.so (2013.1, Build901 2013/11/27)

>  <Rbt.Parameter_File>
/home/malgorzata/Desktop/rDock_2013.1_src/data/scripts/hard_docking.prm

>  <Rbt.Receptor>
cavity.prm

>  <SCORE>
-11.7684

>  <SCORE.INTER>
-9.63942

>  <SCORE.INTER.CONST>
1

>  <SCORE.INTER.POLAR>
-0.424756

>  <SCORE.INTER.REPUL>
0

>  <SCORE.INTER.ROT>
5

>  <SCORE.INTER.VDW>
-18.5952

>  <SCORE.INTER.norm>
-0.370747

>  <SCORE.INTRA>
-1.60087

>  <SCORE.INTRA.DIHEDRAL>
-4.67397

>  <SCORE.INTRA.DIHEDRAL.0>
18.1022

>  <SCORE.INTRA.POLAR>
0

>  <SCORE.INTRA.POLAR.0>
0

>  <SCORE.INTRA.REPUL>
0

>  <SCORE.INTRA.REPUL.0>
0

>  <SCORE.INTRA.VDW>
0.736119

>  <SCORE.INTRA.VDW.0>
-2.81782

>  <SCORE.INTRA.norm>
-0.0615718

>  <SCORE.RESTR>
3.22079

>  <SCORE.RESTR.CAVITY>
3.22079

>  <SCORE.RESTR.norm>
0.123877

>  <SCORE.SYSTEM>
-3.74892

>  <SCORE.SYSTEM.CONST>
0

>  <SCORE.SYSTEM.DIHEDRAL>
1.12562

>  <SCORE.SYSTEM.POLAR>
-1.01465

>  <SCORE.SYSTEM.VDW>
-0.861933

>  <SCORE.SYSTEM.norm>
-0.144189

>  <SCORE.heavy>
26

>  <SCORE.norm>
-0.452631

$$$$
S58.pdb
  rDOCK(R)          3D
libRbt.so/2013.1/901 2013/11/27
 28 30  0  0  0  0  0  0  0  0999 V2000
   25.4276   32.3504   31.2679 C   0  0  0  0  0  0
   25.8667   31.2510   30.5950 C   0  0  0  0  0  0
   26.1438   32.3479   32.5764 C   0  0  0  0  0  0
   25.9693   33.2779   33.7397 C   0  0  0  0  0  0
   27.7182   29.6546   30.9933 C   0  0  0  0  0  0
   28.2302   29.7411   29.6925 C   0  0  0  0  0  0
   29.2087   28.8474   29.2831 C   0  0  0  0  0  0
   29.6781   27.8645   30.1846 C   0  0  0  0  0  0
   29.1631   27.7814   31.4891 C   0  0  0  0  0  0
   28.1745   28.6817   31.8935 C   0  0  0  0  0  0
   25.3671   30.8232   29.2525 C   0  0  0  0  0  0
   25.4109   29.4516   28.8948 C   0  0  0  0  0  0
   24.8091   29.0121   27.7010 C   0  0  0  0  0  0
   24.1647   29.9261   26.8716 C   0  0  0  0  0  0
   24.1441   31.2852   27.2033 C   0  0  0  0  0  0
   24.7464   31.7390   28.4004 C   0  0  0  0  0  0
   26.7968   30.5970   31.3707 N   0  0  0  0  0  0
   26.9495   31.3212   32.5937 N   0  0  0  0  0  0
   32.4688   27.5981   29.4855 N   0  0  0  0  0  0
   30.5761   26.0760   28.4351 O   0  0  0  0  0  0
   31.1107   25.6962   30.6841 O   0  0  0  0  0  0
   23.1985   29.3110   25.4239 Br  0  0  0  0  0  0
   24.7129   33.1481   34.2344 F   0  0  0  0  0  0
   26.2254   34.5393   33.3590 F   0  0  0  0  0  0
   26.8441   32.9211   34.6866 F   0  0  0  0  0  0
   30.9745   26.6939   29.6603 S   0  0  0  0  0  0
   33.3121   27.1207   29.3579 H   0  0  0  0  0  0
   32.4581   28.5790   29.5130 H   0  0  0  0  0  0
  1  3  1  0  0  0
  2  1  2  0  0  0
  2 17  1  0  0  0
  3 18  2  0  0  0
  3  4  1  0  0  0
  4 23  1  0  0  0
  4 25  1  0  0  0
  5 17  1  0  0  0
  5  6  2  0  0  0
  7  6  1  0  0  0
  8  7  2  0  0  0
  9 10  2  0  0  0
  9  8  1  0  0  0
 10  5  1  0  0  0
 11  2  1  0  0  0
 12 11  1  0  0  0
 13 12  2  0  0  0
 14 15  2  0  0  0
 14 13  1  0  0  0
 15 16  1  0  0  0
 16 11  2  0  0  0
 17 18  1  0  0  0
 19 28  1  0  0  0
 20 26  2  0  0  0
 22 14  1  0  0  0
 24  4  1  0  0  0
 26  8  1  0  0  0
 26 19  1  0  0  0
 26 21  2  0  0  0
 27 19  1  0  0  0
M  END
>  <CHROM.0>
-79.88486936,73.19184406,126.87367194

>  <CHROM.1>
63.31232257,31.21466443,-152.54551012,69.42870089,169.64194595,26.71609091
29.87694613,29.74476025,2.68434652,0.55638070,-2.18297733

>  <FORMUL>
      S58    C16 H11 Br1 F3 N3 O2 S1

>  <HET>
 S58  A 701      28

>  <HETNAM>
     S58 1-PHENYLSULFONAMIDE-3-TRIFLUOROMETHYL-5-PARABROMOPHENYL
   2 S58 PYRAZOLE

>  <Name>
S58.pdb

>  <RI>
0

>  <Rbt.Current_Directory>
/home/malgorzata/Desktop/rDOCK_IFD/Wyniki/3b_COX2/IFD

>  <Rbt.Executable>
rbdock ($Id: //depot/dev/client3/rdock/2013.1/src/exe/rbdock.cxx#4 $)

>  <Rbt.Library>
libRbt.so (2013.1, Build901 2013/11/27)

>  <Rbt.Parameter_File>
/home/malgorzata/Desktop/rDock_2013.1_src/data/scripts/hard_docking.prm

>  <Rbt.Receptor>
cavity.prm

>  <SCORE>
-5.4486

>  <SCORE.INTER>
-1.44495

>  <SCORE.INTER.CONST>
1

>  <SCORE.INTER.POLAR>
-0.227068

>  <SCORE.INTER.REPUL>
0.35989

>  <SCORE.INTER.ROT>
5

>  <SCORE.INTER.VDW>
-12.8724

>  <SCORE.INTER.norm>
-0.0555748

>  <SCORE.INTRA>
-3.0385

>  <SCORE.INTRA.DIHEDRAL>
-7.71182

>  <SCORE.INTRA.DIHEDRAL.0>
18.1022

>  <SCORE.INTRA.POLAR>
0

>  <SCORE.INTRA.POLAR.0>
0

>  <SCORE.INTRA.REPUL>
0

>  <SCORE.INTRA.REPUL.0>
0

>  <SCORE.INTRA.VDW>
0.81741

>  <SCORE.INTRA.VDW.0>
-2.81782

>  <SCORE.INTRA.norm>
-0.116865

>  <SCORE.RESTR>
0.617293

>  <SCORE.RESTR.CAVITY>
0.617293

>  <SCORE.RESTR.norm>
0.0237421

>  <SCORE.SYSTEM>
-1.58245

>  <SCORE.SYSTEM.CONST>
0

>  <SCORE.SYSTEM.DIHEDRAL>
1.61926

>  <SCORE.SYSTEM.POLAR>
-0.497901

>  <SCORE.SYSTEM.REPUL>
0.0778772

>  <SCORE.SYSTEM.VDW>
-1.0886

>  <SCORE.SYSTEM.norm>
-0.0608635

>  <SCORE.heavy>
26

>  <SCORE.norm>
-0.209562

$$$$
S58.pdb
  rDOCK(R)          3D
libRbt.so/2013.1/901 2013/11/27
 28 30  0  0  0  0  0  0  0  0999 V2000
   26.0598   27.2942   29.3479 C   0  0  0  0  0  0
   26.5576   28.4829   29.7877 C   0  0  0  0  0  0
   26.2903   27.2689   27.8743 C   0  0  0  0  0  0
   25.8541   26.2373   26.8772 C   0  0  0  0  0  0
   27.9538   30.2281   28.7198 C   0  0  0  0  0  0
   28.8745   30.3011   29.7728 C   0  0  0  0  0  0
   29.8136   31.3216   29.7891 C   0  0  0  0  0  0
   29.8312   32.2713   28.7418 C   0  0  0  0  0  0
   28.9069   32.1943   27.6864 C   0  0  0  0  0  0
   27.9608   31.1665   27.6785 C   0  0  0  0  0  0
   26.4869   28.9601   31.2027 C   0  0  0  0  0  0
   26.4738   30.3525   31.4710 C   0  0  0  0  0  0
   26.2564   30.8187   32.7809 C   0  0  0  0  0  0
   26.0487   29.9100   33.8151 C   0  0  0  0  0  0
   26.0907   28.5344   33.5628 C   0  0  0  0  0  0
   26.3094   28.0538   32.2501 C   0  0  0  0  0  0
   27.0849   29.1677   28.7164 N   0  0  0  0  0  0
   26.9086   28.3698   27.5435 N   0  0  0  0  0  0
   31.9692   33.4958   30.2506 N   0  0  0  0  0  0
   30.4021   34.8643   28.6156 O   0  0  0  0  0  0
   31.9455   33.4062   27.6259 O   0  0  0  0  0  0
   25.5540   30.5315   35.4814 Br  0  0  0  0  0  0
   25.6284   25.0621   27.5158 F   0  0  0  0  0  0
   26.7818   26.1100   25.9156 F   0  0  0  0  0  0
   24.7088   26.6554   26.3269 F   0  0  0  0  0  0
   31.0710   33.6086   28.7468 S   0  0  0  0  0  0
   32.9415   33.3985   30.2284 H   0  0  0  0  0  0
   31.4981   33.5329   31.1108 H   0  0  0  0  0  0
  1  3  1  0  0  0
  2  1  2  0  0  0
  2 17  1  0  0  0
  3 18  2  0  0  0
  3  4  1  0  0  0
  4 23  1  0  0  0
  4 25  1  0  0  0
  5 17  1  0  0  0
  5  6  2  0  0  0
  7  6  1  0  0  0
  8  7  2  0  0  0
  9 10  2  0  0  0
  9  8  1  0  0  0
 10  5  1  0  0  0
 11  2  1  0  0  0
 12 11  1  0  0  0
 13 12  2  0  0  0
 14 15  2  0  0  0
 14 13  1  0  0  0
 15 16  1  0  0  0
 16 11  2  0  0  0
 17 18  1  0  0  0
 19 28  1  0  0  0
 20 26  2  0  0  0
 22 14  1  0  0  0
 24  4  1  0  0  0
 26  8  1  0  0  0
 26 19  1  0  0  0
 26 21  2  0  0  0
 27 19  1  0  0  0
M  END
>  <CHROM.0>
101.86231786,-179.19225167,-91.38871983

>  <CHROM.1>
-22.24106634,30.94040989,-152.43753079,-5.01028041,123.18025526,27.45689134
30.00316382,30.26053147,2.34297195,0.83987845,1.10513150

>  <FORMUL>
      S58    C16 H11 Br1 F3 N3 O2 S1

>  <HET>
 S58  A 701      28

>  <HETNAM>
     S58 1-PHENYLSULFONAMIDE-3-TRIFLUOROMETHYL-5-PARABROMOPHENYL
   2 S58 PYRAZOLE

>  <Name>
S58.pdb

>  <RI>
0

>  <Rbt.Current_Directory>
/home/malgorzata/Desktop/rDOCK_IFD/Wyniki/3b_COX2/IFD

>  <Rbt.Executable>
rbdock ($Id: //depot/dev/client3/rdock/2013.1/src/exe/rbdock.cxx#4 $)

>  <Rbt.Library>
libRbt.so (2013.1, Build901 2013/11/27)

>  <Rbt.Parameter_File>
/home/malgorzata/Desktop/rDock_2013.1_src/data/scripts/hard_docking.prm

>  <Rbt.Receptor>
cavity.prm

>  <SCORE>
-12.1554

>  <SCORE.INTER>
-7.93972

>  <SCORE.INTER.CONST>
1

>  <SCORE.INTER.POLAR>
-0.894427

>  <SCORE.INTER.REPUL>
0

>  <SCORE.INTER.ROT>
5

>  <SCORE.INTER.VDW>
-15.2987

>  <SCORE.INTER.norm>
-0.305374

>  <SCORE.INTRA>
-3.17396

>  <SCORE.INTRA.DIHEDRAL>
-7.72199

>  <SCORE.INTRA.DIHEDRAL.0>
18.1022

>  <SCORE.INTRA.POLAR>
0

>  <SCORE.INTRA.POLAR.0>
0

>  <SCORE.INTRA.REPUL>
0

>  <SCORE.INTRA.REPUL.0>
0

>  <SCORE.INTRA.VDW>
0.687035

>  <SCORE.INTRA.VDW.0>
-2.81782

>  <SCORE.INTRA.norm>
-0.122075

>  <SCORE.RESTR>
0

>  <SCORE.RESTR.CAVITY>
0

>  <SCORE.RESTR.norm>
0

>  <SCORE.SYSTEM>
-1.04171

>  <SCORE.SYSTEM.CONST>
0

>  <SCORE.SYSTEM.DIHEDRAL>
0.812744

>  <SCORE.SYSTEM.REPUL>
0.0356365

>  <SCORE.SYSTEM.VDW>
-1.62627

>  <SCORE.SYSTEM.norm>
-0.040066

>  <SCORE.heavy>
26

>  <SCORE.norm>
-0.467515

$$$$
S58.pdb
  rDOCK(R)          3D
libRbt.so/2013.1/901 2013/11/27
 28 30  0  0  0  0  0  0  0  0999 V2000
   28.4484   33.0964   27.8873 C   0  0  0  0  0  0
   27.3481   32.3087   28.0400 C   0  0  0  0  0  0
   29.5993   32.3058   28.4124 C   0  0  0  0  0  0
   31.0290   32.7287   28.5720 C   0  0  0  0  0  0
   27.0484   29.9213   28.6279 C   0  0  0  0  0  0
   27.5313   28.8750   27.8317 C   0  0  0  0  0  0
   26.9081   27.6369   27.8796 C   0  0  0  0  0  0
   25.7971   27.4469   28.7332 C   0  0  0  0  0  0
   25.3160   28.4983   29.5314 C   0  0  0  0  0  0
   25.9456   29.7441   29.4750 C   0  0  0  0  0  0
   25.9535   32.7252   27.6988 C   0  0  0  0  0  0
   25.6964   34.0696   27.3279 C   0  0  0  0  0  0
   24.4231   34.4433   26.8596 C   0  0  0  0  0  0
   23.4146   33.4890   26.7555 C   0  0  0  0  0  0
   23.6526   32.1673   27.1484 C   0  0  0  0  0  0
   24.9285   31.7800   27.6216 C   0  0  0  0  0  0
   27.7340   31.1079   28.5912 N   0  0  0  0  0  0
   29.1483   31.1427   28.7964 N   0  0  0  0  0  0
   25.6515   24.8220   27.5346 N   0  0  0  0  0  0
   23.5695   25.9979   28.6681 O   0  0  0  0  0  0
   25.2645   25.2430   30.0981 O   0  0  0  0  0  0
   21.8201   33.9409   25.9424 Br  0  0  0  0  0  0
   31.7787   31.6548   28.9252 F   0  0  0  0  0  0
   31.1156   33.7148   29.4785 F   0  0  0  0  0  0
   31.4581   33.1835   27.3894 F   0  0  0  0  0  0
   24.9795   25.8187   28.8138 S   0  0  0  0  0  0
   26.2963   24.1212   27.7543 H   0  0  0  0  0  0
   25.3793   24.9655   26.6027 H   0  0  0  0  0  0
  1  3  1  0  0  0
  2  1  2  0  0  0
  2 17  1  0  0  0
  3 18  2  0  0  0
  3  4  1  0  0  0
  4 23  1  0  0  0
  4 25  1  0  0  0
  5 17  1  0  0  0
  5  6  2  0  0  0
  7  6  1  0  0  0
  8  7  2  0  0  0
  9 10  2  0  0  0
  9  8  1  0  0  0
 10  5  1  0  0  0
 11  2  1  0  0  0
 12 11  1  0  0  0
 13 12  2  0  0  0
 14 15  2  0  0  0
 14 13  1  0  0  0
 15 16  1  0  0  0
 16 11  2  0  0  0
 17 18  1  0  0  0
 19 28  1  0  0  0
 20 26  2  0  0  0
 22 14  1  0  0  0
 24  4  1  0  0  0
 26  8  1  0  0  0
 26 19  1  0  0  0
 26 21  2  0  0  0
 27 19  1  0  0  0
M  END
>  <CHROM.0>
109.41101871,-68.13874051,129.65961630

>  <CHROM.1>
-172.32851237,109.69979717,-7.40371287,-9.00187380,104.27078855,26.08935798
30.93368449,27.90062147,-2.18457956,0.23298729,2.90990821

>  <FORMUL>
      S58    C16 H11 Br1 F3 N3 O2 S1

>  <HET>
 S58  A 701      28

>  <HETNAM>
     S58 1-PHENYLSULFONAMIDE-3-TRIFLUOROMETHYL-5-PARABROMOPHENYL
   2 S58 PYRAZOLE

>  <Name>
S58.pdb

>  <RI>
0

>  <Rbt.Current_Directory>
/home/malgorzata/Desktop/rDOCK_IFD/Wyniki/3b_COX2/IFD

>  <Rbt.Executable>
rbdock ($Id: //depot/dev/client3/rdock/2013.1/src/exe/rbdock.cxx#4 $)

>  <Rbt.Library>
libRbt.so (2013.1, Build901 2013/11/27)

>  <Rbt.Parameter_File>
/home/malgorzata/Desktop/rDock_2013.1_src/data/scripts/hard_docking.prm

>  <Rbt.Receptor>
cavity.prm

>  <SCORE>
-19.2444

>  <SCORE.INTER>
-13.9644

>  <SCORE.INTER.CONST>
1

>  <SCORE.INTER.POLAR>
-1.86328

>  <SCORE.INTER.REPUL>
0.0176296

>  <SCORE.INTER.ROT>
5

>  <SCORE.INTER.VDW>
-18.1174

>  <SCORE.INTER.norm>
-0.537092

>  <SCORE.INTRA>
-1.63038

>  <SCORE.INTRA.DIHEDRAL>
-4.54705

>  <SCORE.INTRA.DIHEDRAL.0>
18.1022

>  <SCORE.INTRA.POLAR>
0

>  <SCORE.INTRA.POLAR.0>
0

>  <SCORE.INTRA.REPUL>
0

>  <SCORE.INTRA.REPUL.0>
0

>  <SCORE.INTRA.VDW>
0.643141

>  <SCORE.INTRA.VDW.0>
-2.81782

>  <SCORE.INTRA.norm>
-0.0627071

>  <SCORE.RESTR>
0.125336

>  <SCORE.RESTR.CAVITY>
0.125336

>  <SCORE.RESTR.norm>
0.00482061

>  <SCORE.SYSTEM>
-3.77501

>  <SCORE.SYSTEM.CONST>
0

>  <SCORE.SYSTEM.DIHEDRAL>
1.12775

>  <SCORE.SYSTEM.POLAR>
-1.02082

>  <SCORE.SYSTEM.VDW>
-0.868078

>  <SCORE.SYSTEM.norm>
-0.145193

>  <SCORE.heavy>
26

>  <SCORE.norm>
-0.740171

$$$$
S58.pdb
  rDOCK(R)          3D
libRbt.so/2013.1/901 2013/11/27
 28 30  0  0  0  0  0  0  0  0999 V2000
   27.3160   30.6940   32.1889 C   0  0  0  0  0  0
   26.9977   31.0281   30.9078 C   0  0  0  0  0  0
   27.1369   31.9352   32.9968 C   0  0  0  0  0  0
   27.4391   32.1576   34.4486 C   0  0  0  0  0  0
   25.9350   33.0241   29.8970 C   0  0  0  0  0  0
   26.5095   34.1999   29.3978 C   0  0  0  0  0  0
   25.8805   34.8832   28.3677 C   0  0  0  0  0  0
   24.6710   34.3821   27.8336 C   0  0  0  0  0  0
   24.0981   33.2017   28.3360 C   0  0  0  0  0  0
   24.7346   32.5209   29.3767 C   0  0  0  0  0  0
   27.0928   30.0986   29.7408 C   0  0  0  0  0  0
   27.7671   28.8596   29.8871 C   0  0  0  0  0  0
   27.7365   27.9104   28.8486 C   0  0  0  0  0  0
   27.0380   28.1869   27.6764 C   0  0  0  0  0  0
   26.3960   29.4194   27.5133 C   0  0  0  0  0  0
   26.4206   30.3819   28.5501 C   0  0  0  0  0  0
   26.6243   32.3524   30.8734 N   0  0  0  0  0  0
   26.7133   32.8780   32.1998 N   0  0  0  0  0  0
   23.1197   34.0615   25.4173 N   0  0  0  0  0  0
   24.8061   36.0677   25.7827 O   0  0  0  0  0  0
   22.8288   36.1075   27.0382 O   0  0  0  0  0  0
   26.8255   26.8575   26.4134 Br  0  0  0  0  0  0
   27.4988   33.4900   34.6963 F   0  0  0  0  0  0
   28.5843   31.5394   34.7772 F   0  0  0  0  0  0
   26.4380   31.6311   35.1627 F   0  0  0  0  0  0
   23.8436   35.2656   26.4696 S   0  0  0  0  0  0
   23.6829   33.3791   25.0021 H   0  0  0  0  0  0
   22.1530   34.0711   25.2482 H   0  0  0  0  0  0
  1  3  1  0  0  0
  2  1  2  0  0  0
  2 17  1  0  0  0
  3 18  2  0  0  0
  3  4  1  0  0  0
  4 23  1  0  0  0
  4 25  1  0  0  0
  5 17  1  0  0  0
  5  6  2  0  0  0
  7  6  1  0  0  0
  8  7  2  0  0  0
  9 10  2  0  0  0
  9  8  1  0  0  0
 10  5  1  0  0  0
 11  2  1  0  0  0
 12 11  1  0  0  0
 13 12  2  0  0  0
 14 15  2  0  0  0
 14 13  1  0  0  0
 15 16  1  0  0  0
 16 11  2  0  0  0
 17 18  1  0  0  0
 19 28  1  0  0  0
 20 26  2  0  0  0
 22 14  1  0  0  0
 24  4  1  0  0  0
 26  8  1  0  0  0
 26 19  1  0  0  0
 26 21  2  0  0  0
 27 19  1  0  0  0
M  END
>  <CHROM.0>
153.59079443,178.46989333,126.17203748

>  <CHROM.1>
162.69736567,-127.11676339,-11.60367103,144.35058600,-58.50916094,26.16592816
31.48739484,29.27487616,-1.44271544,1.11666139,-2.29929689

>  <FORMUL>
      S58    C16 H11 Br1 F3 N3 O2 S1

>  <HET>
 S58  A 701      28

>  <HETNAM>
     S58 1-PHENYLSULFONAMIDE-3-TRIFLUOROMETHYL-5-PARABROMOPHENYL
   2 S58 PYRAZOLE

>  <Name>
S58.pdb

>  <RI>
0

>  <Rbt.Current_Directory>
/home/malgorzata/Desktop/rDOCK_IFD/Wyniki/3b_COX2/IFD

>  <Rbt.Executable>
rbdock ($Id: //depot/dev/client3/rdock/2013.1/src/exe/rbdock.cxx#4 $)

>  <Rbt.Library>
libRbt.so (2013.1, Build901 2013/11/27)

>  <Rbt.Parameter_File>
/home/malgorzata/Desktop/rDock_2013.1_src/data/scripts/hard_docking.prm

>  <Rbt.Receptor>
cavity.prm

>  <SCORE>
-9.70681

>  <SCORE.INTER>
-6.0883

>  <SCORE.INTER.CONST>
1

>  <SCORE.INTER.POLAR>
-1.11803

>  <SCORE.INTER.REPUL>
0

>  <SCORE.INTER.ROT>
5

>  <SCORE.INTER.VDW>
-12.687

>  <SCORE.INTER.norm>
-0.234165

>  <SCORE.INTRA>
-1.25306

>  <SCORE.INTRA.DIHEDRAL>
-4.43659

>  <SCORE.INTRA.DIHEDRAL.0>
18.1022

>  <SCORE.INTRA.POLAR>
0

>  <SCORE.INTRA.POLAR.0>
0

>  <SCORE.INTRA.REPUL>
0

>  <SCORE.INTRA.REPUL.0>
0

>  <SCORE.INTRA.VDW>
0.965237

>  <SCORE.INTRA.VDW.0>
-2.81782

>  <SCORE.INTRA.norm>
-0.0481945

>  <SCORE.RESTR>
0.241704

>  <SCORE.RESTR.CAVITY>
0.241704

>  <SCORE.RESTR.norm>
0.00929629

>  <SCORE.SYSTEM>
-2.60716

>  <SCORE.SYSTEM.CONST>
0

>  <SCORE.SYSTEM.DIHEDRAL>
0.804626

>  <SCORE.SYSTEM.POLAR>
-0.492178

>  <SCORE.SYSTEM.REPUL>
0.0389478

>  <SCORE.SYSTEM.VDW>
-1.5308

>  <SCORE.SYSTEM.norm>
-0.100275

>  <SCORE.heavy>
26

>  <SCORE.norm>
-0.373339

$$$$
S58.pdb
  rDOCK(R)          3D
libRbt.so/2013.1/901 2013/11/27
 28 30  0  0  0  0  0  0  0  0999 V2000
   25.6362   34.3411   31.5681 C   0  0  0  0  0  0
   25.8493   33.0042   31.4207 C   0  0  0  0  0  0
   25.8683   34.9476   30.2252 C   0  0  0  0  0  0
   25.8618   36.3967   29.8398 C   0  0  0  0  0  0
   26.1521   31.5506   29.4381 C   0  0  0  0  0  0
   26.6579   30.4310   30.1108 C   0  0  0  0  0  0
   26.6075   29.1870   29.4997 C   0  0  0  0  0  0
   26.0435   29.0654   28.2088 C   0  0  0  0  0  0
   25.5361   30.1904   27.5374 C   0  0  0  0  0  0
   25.5941   31.4412   28.1569 C   0  0  0  0  0  0
   25.7846   32.0078   32.5333 C   0  0  0  0  0  0
   24.8913   30.9105   32.4378 C   0  0  0  0  0  0
   24.9245   29.8852   33.4012 C   0  0  0  0  0  0
   25.8405   29.9462   34.4480 C   0  0  0  0  0  0
   26.7039   31.0410   34.5652 C   0  0  0  0  0  0
   26.6791   32.0782   33.6032 C   0  0  0  0  0  0
   26.1695   32.7472   30.1069 N   0  0  0  0  0  0
   26.1582   33.9853   29.3923 N   0  0  0  0  0  0
   24.7184   27.5123   26.1644 N   0  0  0  0  0  0
   25.6686   26.4400   28.3891 O   0  0  0  0  0  0
   27.2403   27.1641   26.8101 O   0  0  0  0  0  0
   26.0209   28.4988   35.5794 Br  0  0  0  0  0  0
   25.3277   37.1280   30.8498 F   0  0  0  0  0  0
   25.1829   36.5620   28.6938 F   0  0  0  0  0  0
   27.1303   36.7790   29.6552 F   0  0  0  0  0  0
   25.9599   27.4317   27.4027 S   0  0  0  0  0  0
   23.9857   26.8655   26.1698 H   0  0  0  0  0  0
   24.7576   28.2054   25.4706 H   0  0  0  0  0  0
  1  3  1  0  0  0
  2  1  2  0  0  0
  2 17  1  0  0  0
  3 18  2  0  0  0
  3  4  1  0  0  0
  4 23  1  0  0  0
  4 25  1  0  0  0
  5 17  1  0  0  0
  5  6  2  0  0  0
  7  6  1  0  0  0
  8  7  2  0  0  0
  9 10  2  0  0  0
  9  8  1  0  0  0
 10  5  1  0  0  0
 11  2  1  0  0  0
 12 11  1  0  0  0
 13 12  2  0  0  0
 14 15  2  0  0  0
 14 13  1  0  0  0
 15 16  1  0  0  0
 16 11  2  0  0  0
 17 18  1  0  0  0
 19 28  1  0  0  0
 20 26  2  0  0  0
 22 14  1  0  0  0
 24  4  1  0  0  0
 26  8  1  0  0  0
 26 19  1  0  0  0
 26 21  2  0  0  0
 27 19  1  0  0  0
M  END
>  <CHROM.0>
113.62003108,-69.14602537,121.16020336

>  <CHROM.1>
-12.88971613,-42.34864361,122.85709911,158.98875105,-124.98415011,25.94225773
31.04358978,30.93320054,-2.36213260,1.55675142,-2.69420186

>  <FORMUL>
      S58    C16 H11 Br1 F3 N3 O2 S1

>  <HET>
 S58  A 701      28

>  <HETNAM>
     S58 1-PHENYLSULFONAMIDE-3-TRIFLUOROMETHYL-5-PARABROMOPHENYL
   2 S58 PYRAZOLE

>  <Name>
S58.pdb

>  <RI>
0

>  <Rbt.Current_Directory>
/home/malgorzata/Desktop/rDOCK_IFD/Wyniki/3b_COX2/IFD

>  <Rbt.Executable>
rbdock ($Id: //depot/dev/client3/rdock/2013.1/src/exe/rbdock.cxx#4 $)

>  <Rbt.Library>
libRbt.so (2013.1, Build901 2013/11/27)

>  <Rbt.Parameter_File>
/home/malgorzata/Desktop/rDock_2013.1_src/data/scripts/hard_docking.prm

>  <Rbt.Receptor>
cavity.prm

>  <SCORE>
-6.99263

>  <SCORE.INTER>
-2.92432

>  <SCORE.INTER.CONST>
1

>  <SCORE.INTER.POLAR>
-1.95549

>  <SCORE.INTER.REPUL>
0

>  <SCORE.INTER.ROT>
5

>  <SCORE.INTER.VDW>
-6.67566

>  <SCORE.INTER.norm>
-0.112474

>  <SCORE.INTRA>
-0.297491

>  <SCORE.INTRA.DIHEDRAL>
-0.908651

>  <SCORE.INTRA.DIHEDRAL.0>
18.1022

>  <SCORE.INTRA.POLAR>
0

>  <SCORE.INTRA.POLAR.0>
0

>  <SCORE.INTRA.REPUL>
0

>  <SCORE.INTRA.REPUL.0>
0

>  <SCORE.INTRA.VDW>
0.156834

>  <SCORE.INTRA.VDW.0>
-2.81782

>  <SCORE.INTRA.norm>
-0.011442

>  <SCORE.RESTR>
0

>  <SCORE.RESTR.CAVITY>
0

>  <SCORE.RESTR.norm>
0

>  <SCORE.SYSTEM>
-3.77082

>  <SCORE.SYSTEM.CONST>
0

>  <SCORE.SYSTEM.DIHEDRAL>
1.20794

>  <SCORE.SYSTEM.POLAR>
-0.950693

>  <SCORE.SYSTEM.VDW>
-1.14243

>  <SCORE.SYSTEM.norm>
-0.145031

>  <SCORE.heavy>
26

>  <SCORE.norm>
-0.268947

$$$$
S58.pdb
  rDOCK(R)          3D
libRbt.so/2013.1/901 2013/11/27
 28 30  0  0  0  0  0  0  0  0999 V2000
   31.8055   30.5826   29.5987 C   0  0  0  0  0  0
   30.4707   30.8415   29.5232 C   0  0  0  0  0  0
   31.9329   29.1021   29.7299 C   0  0  0  0  0  0
   33.1723   28.2856   29.9436 C   0  0  0  0  0  0
   28.4836   29.3934   29.2236 C   0  0  0  0  0  0
   27.9194   30.1945   28.2227 C   0  0  0  0  0  0
   26.6280   29.9356   27.7880 C   0  0  0  0  0  0
   25.9007   28.8653   28.3580 C   0  0  0  0  0  0
   26.4702   28.0631   29.3610 C   0  0  0  0  0  0
   27.7697   28.3322   29.7974 C   0  0  0  0  0  0
   29.8761   32.2107   29.4424 C   0  0  0  0  0  0
   28.5738   32.4387   29.9555 C   0  0  0  0  0  0
   28.0595   33.7467   30.0247 C   0  0  0  0  0  0
   28.8337   34.8203   29.5927 C   0  0  0  0  0  0
   30.1074   34.5995   29.0572 C   0  0  0  0  0  0
   30.6347   33.2888   28.9817 C   0  0  0  0  0  0
   29.7830   29.6504   29.5771 N   0  0  0  0  0  0
   30.7334   28.5889   29.6936 N   0  0  0  0  0  0
   24.3207   27.8917   26.1437 N   0  0  0  0  0  0
   23.4297   29.7047   27.8528 O   0  0  0  0  0  0
   23.6448   27.5136   28.6533 O   0  0  0  0  0  0
   28.2374   36.5428   29.8848 Br  0  0  0  0  0  0
   34.2632   29.0446   29.6715 F   0  0  0  0  0  0
   33.1310   27.1831   29.1791 F   0  0  0  0  0  0
   33.2096   27.9235   31.2308 F   0  0  0  0  0  0
   24.2072   28.5080   27.7833 S   0  0  0  0  0  0
   23.7926   27.1123   25.8812 H   0  0  0  0  0  0
   24.9098   28.3289   25.4918 H   0  0  0  0  0  0
  1  3  1  0  0  0
  2  1  2  0  0  0
  2 17  1  0  0  0
  3 18  2  0  0  0
  3  4  1  0  0  0
  4 23  1  0  0  0
  4 25  1  0  0  0
  5 17  1  0  0  0
  5  6  2  0  0  0
  7  6  1  0  0  0
  8  7  2  0  0  0
  9 10  2  0  0  0
  9  8  1  0  0  0
 10  5  1  0  0  0
 11  2  1  0  0  0
 12 11  1  0  0  0
 13 12  2  0  0  0
 14 15  2  0  0  0
 14 13  1  0  0  0
 15 16  1  0  0  0
 16 11  2  0  0  0
 17 18  1  0  0  0
 19 28  1  0  0  0
 20 26  2  0  0  0
 22 14  1  0  0  0
 24  4  1  0  0  0
 26  8  1  0  0  0
 26 19  1  0  0  0
 26 21  2  0  0  0
 27 19  1  0  0  0
M  END
>  <CHROM.0>
-88.86017801,-69.20124721,126.00364713

>  <CHROM.1>
-15.45764541,28.57063217,-151.71082550,69.05331311,135.70627048,28.68181778
31.00480771,29.21175906,-1.33258198,0.23201089,-3.02841363

>  <FORMUL>
      S58    C16 H11 Br1 F3 N3 O2 S1

>  <HET>
 S58  A 701      28

>  <HETNAM>
     S58 1-PHENYLSULFONAMIDE-3-TRIFLUOROMETHYL-5-PARABROMOPHENYL
   2 S58 PYRAZOLE

>  <Name>
S58.pdb

>  <RI>
0

>  <Rbt.Current_Directory>
/home/malgorzata/Desktop/rDOCK_IFD/Wyniki/3b_COX2/IFD

>  <Rbt.Executable>
rbdock ($Id: //depot/dev/client3/rdock/2013.1/src/exe/rbdock.cxx#4 $)

>  <Rbt.Library>
libRbt.so (2013.1, Build901 2013/11/27)

>  <Rbt.Parameter_File>
/home/malgorzata/Desktop/rDock_2013.1_src/data/scripts/hard_docking.prm

>  <Rbt.Receptor>
cavity.prm

>  <SCORE>
-16.5577

>  <SCORE.INTER>
-10.6635

>  <SCORE.INTER.CONST>
1

>  <SCORE.INTER.POLAR>
-1.95575

>  <SCORE.INTER.REPUL>
0

>  <SCORE.INTER.ROT>
5

>  <SCORE.INTER.VDW>
-14.414

>  <SCORE.INTER.norm>
-0.410134

>  <SCORE.INTRA>
-3.08054

>  <SCORE.INTRA.DIHEDRAL>
-8.11053

>  <SCORE.INTRA.DIHEDRAL.0>
18.1022

>  <SCORE.INTRA.POLAR>
0

>  <SCORE.INTRA.POLAR.0>
0

>  <SCORE.INTRA.REPUL>
0

>  <SCORE.INTRA.REPUL.0>
0

>  <SCORE.INTRA.VDW>
0.974731

>  <SCORE.INTRA.VDW.0>
-2.81782

>  <SCORE.INTRA.norm>
-0.118482

>  <SCORE.RESTR>
0.97631

>  <SCORE.RESTR.CAVITY>
0.97631

>  <SCORE.RESTR.norm>
0.0375504

>  <SCORE.SYSTEM>
-3.79002

>  <SCORE.SYSTEM.CONST>
0

>  <SCORE.SYSTEM.DIHEDRAL>
1.20272

>  <SCORE.SYSTEM.POLAR>
-0.996119

>  <SCORE.SYSTEM.VDW>
-1.00458

>  <SCORE.SYSTEM.norm>
-0.14577

>  <SCORE.heavy>
26

>  <SCORE.norm>
-0.636836

$$$$
S58.pdb
  rDOCK(R)          3D
libRbt.so/2013.1/901 2013/11/27
 28 30  0  0  0  0  0  0  0  0999 V2000
   26.0538   32.7988   32.9285 C   0  0  0  0  0  0
   26.1938   31.5735   32.3511 C   0  0  0  0  0  0
   25.9177   33.7719   31.8062 C   0  0  0  0  0  0
   25.8315   35.2676   31.8707 C   0  0  0  0  0  0
   25.9122   30.7584   30.0291 C   0  0  0  0  0  0
   24.6743   30.7787   29.3742 C   0  0  0  0  0  0
   24.4238   29.8671   28.3594 C   0  0  0  0  0  0
   25.4217   28.9331   27.9976 C   0  0  0  0  0  0
   26.6628   28.9164   28.6559 C   0  0  0  0  0  0
   26.9069   29.8344   29.6802 C   0  0  0  0  0  0
   26.4203   30.3023   33.1045 C   0  0  0  0  0  0
   26.6129   30.3467   34.5087 C   0  0  0  0  0  0
   26.6766   29.1537   35.2524 C   0  0  0  0  0  0
   26.5450   27.9266   34.6078 C   0  0  0  0  0  0
   26.3852   27.8745   33.2187 C   0  0  0  0  0  0
   26.3206   29.0673   32.4604 C   0  0  0  0  0  0
   26.1348   31.7172   30.9835 N   0  0  0  0  0  0
   25.9495   33.1030   30.6858 N   0  0  0  0  0  0
   24.3679   26.3172   27.3700 N   0  0  0  0  0  0
   26.3426   27.4322   26.0063 O   0  0  0  0  0  0
   24.2079   28.3532   25.7186 O   0  0  0  0  0  0
   26.4158   26.3842   35.6137 Br  0  0  0  0  0  0
   24.5743   35.6304   32.2282 F   0  0  0  0  0  0
   26.1843   35.7973   30.6889 F   0  0  0  0  0  0
   26.6852   35.6888   32.8105 F   0  0  0  0  0  0
   25.1072   27.7396   26.6551 S   0  0  0  0  0  0
   24.7277   25.9497   28.2011 H   0  0  0  0  0  0
   23.5947   25.8934   26.9389 H   0  0  0  0  0  0
  1  3  1  0  0  0
  2  1  2  0  0  0
  2 17  1  0  0  0
  3 18  2  0  0  0
  3  4  1  0  0  0
  4 23  1  0  0  0
  4 25  1  0  0  0
  5 17  1  0  0  0
  5  6  2  0  0  0
  7  6  1  0  0  0
  8  7  2  0  0  0
  9 10  2  0  0  0
  9  8  1  0  0  0
 10  5  1  0  0  0
 11  2  1  0  0  0
 12 11  1  0  0  0
 13 12  2  0  0  0
 14 15  2  0  0  0
 14 13  1  0  0  0
 15 16  1  0  0  0
 16 11  2  0  0  0
 17 18  1  0  0  0
 19 28  1  0  0  0
 20 26  2  0  0  0
 22 14  1  0  0  0
 24  4  1  0  0  0
 26  8  1  0  0  0
 26 19  1  0  0  0
 26 21  2  0  0  0
 27 19  1  0  0  0
M  END
>  <CHROM.0>
115.12717520,-69.69704759,-90.88098189

>  <CHROM.1>
-78.58938982,108.23677933,-5.27368215,-88.79195719,-44.13793166,25.90521522
29.97495709,31.40883574,-0.45014207,-1.41257894,0.02418330

>  <FORMUL>
      S58    C16 H11 Br1 F3 N3 O2 S1

>  <HET>
 S58  A 701      28

>  <HETNAM>
     S58 1-PHENYLSULFONAMIDE-3-TRIFLUOROMETHYL-5-PARABROMOPHENYL
   2 S58 PYRAZOLE

>  <Name>
S58.pdb

>  <RI>
0

>  <Rbt.Current_Directory>
/home/malgorzata/Desktop/rDOCK_IFD/Wyniki/3b_COX2/IFD

>  <Rbt.Executable>
rbdock ($Id: //depot/dev/client3/rdock/2013.1/src/exe/rbdock.cxx#4 $)

>  <Rbt.Library>
libRbt.so (2013.1, Build901 2013/11/27)

>  <Rbt.Parameter_File>
/home/malgorzata/Desktop/rDock_2013.1_src/data/scripts/hard_docking.prm

>  <Rbt.Receptor>
cavity.prm

>  <SCORE>
-3.02565

>  <SCORE.INTER>
-1.10408

>  <SCORE.INTER.CONST>
1

>  <SCORE.INTER.POLAR>
-1.03923

>  <SCORE.INTER.REPUL>
0

>  <SCORE.INTER.ROT>
5

>  <SCORE.INTER.VDW>
-7.9707

>  <SCORE.INTER.norm>
-0.0424647

>  <SCORE.INTRA>
-1.5444

>  <SCORE.INTRA.DIHEDRAL>
-4.5373

>  <SCORE.INTRA.DIHEDRAL.0>
18.1022

>  <SCORE.INTRA.POLAR>
0

>  <SCORE.INTRA.POLAR.0>
0

>  <SCORE.INTRA.REPUL>
0

>  <SCORE.INTRA.REPUL.0>
0

>  <SCORE.INTRA.VDW>
0.724248

>  <SCORE.INTRA.VDW.0>
-2.81782

>  <SCORE.INTRA.norm>
-0.0594001

>  <SCORE.RESTR>
1.66066

>  <SCORE.RESTR.CAVITY>
1.66066

>  <SCORE.RESTR.norm>
0.0638715

>  <SCORE.SYSTEM>
-2.03782

>  <SCORE.SYSTEM.CONST>
0

>  <SCORE.SYSTEM.DIHEDRAL>
1.25926

>  <SCORE.SYSTEM.POLAR>
-0.506552

>  <SCORE.SYSTEM.VDW>
-0.945173

>  <SCORE.SYSTEM.norm>
-0.0783777

>  <SCORE.heavy>
26

>  <SCORE.norm>
-0.116371

$$$$
