SIA.pdb
  rDOCK(R)          3D
libRbt.so/2013.1/901 2013/11/27
 28 28  0  0  0  0  0  0  0  0999 V2000
   -2.4551   57.9943   -3.9454 C   0  0  0  0  0  0
   -2.3357   57.5686   -5.4110 C   0  0  0  0  0  0
   -1.1865   56.8031   -6.0544 C   0  0  0  0  0  0
   -1.6065   56.0491   -7.3068 C   0  0  0  0  0  0
   -2.8402   56.6605   -7.9653 C   0  0  0  0  0  0
   -4.0099   56.5871   -6.9786 C   0  0  0  0  0  0
   -5.2603   57.2995   -7.5271 C   0  0  0  0  0  0
   -6.4894   56.3886   -7.5426 C   0  0  0  0  0  0
   -7.7414   56.9611   -8.2518 C   0  0  0  0  0  0
   -2.8353   56.0485  -10.4087 C   0  0  0  0  0  0
   -3.1904   54.9232  -11.3662 C   0  0  0  0  0  0
   -3.0860   55.8325   -9.1322 N   0  0  0  0  0  0
   -1.4623   58.6481   -3.5751 O   0  0  0  0  0  0
   -3.2773   57.7289   -3.0490 O   0  0  0  0  0  0
   -2.6842   58.8962   -5.8105 O   0  0  0  0  0  0
   -0.5404   56.1425   -8.2226 O   0  0  0  0  0  0
   -3.6972   57.2824   -5.7537 O   0  0  0  0  0  0
   -5.6115   58.4221   -6.7338 O   0  0  0  0  0  0
   -6.0824   55.2651   -8.2907 O   0  0  0  0  0  0
   -7.6718   56.7545   -9.6542 O   0  0  0  0  0  0
   -2.3675   57.1306  -10.7671 O   0  0  0  0  0  0
   -3.4443   54.9632   -8.8291 H   0  0  0  0  0  0
   -3.6582   58.9002   -5.7381 H   0  0  0  0  0  0
    0.1113   55.4614   -7.9623 H   0  0  0  0  0  0
   -6.0524   58.7752   -7.5372 H   0  0  0  0  0  0
   -5.6965   55.6476   -9.0908 H   0  0  0  0  0  0
   -7.3080   57.6205   -9.9231 H   0  0  0  0  0  0
   -4.0869   57.3094   -3.2651 H   0  0  0  0  0  0
  1 13  2  0  0  0
  1 14  1  0  0  0
  2  1  1  0  0  0
  2  3  1  0  0  0
  2 15  1  0  0  0
  2 17  1  0  0  0
  3  4  1  0  0  0
  4  5  1  0  0  0
  4 16  1  0  0  0
  5  6  1  0  0  0
  5 12  1  0  0  0
  6  7  1  0  0  0
  6 17  1  0  0  0
  7  8  1  0  0  0
  7 18  1  0  0  0
  8  9  1  0  0  0
  8 19  1  0  0  0
  9 20  1  0  0  0
 10 11  1  0  0  0
 10 12  1  0  0  0
 10 21  2  0  0  0
 12 22  1  0  0  0
 14 28  1  0  0  0
 15 23  1  0  0  0
 16 24  1  0  0  0
 18 25  1  0  0  0
 19 26  1  0  0  0
 20 27  1  0  0  0
M  END
>  <CHROM.0>
-106.55250276,169.68115421,9.39240529,-59.54478641,-52.24759473,-11.37444660
-12.33354950,71.27241822,-169.34026659,88.96724224

>  <CHROM.1>
-12.54676416,54.15222701,-81.28188335,81.11028655,-102.86242614,125.17135980
-172.16124623,155.55081651,83.26422655,-49.82049306,-95.90615383,-3.67232698
56.94252055,-7.32418096,1.06805314,-0.06401934,1.20806871

>  <FORMUL>
      SIA    C11 H19 N1 O9

>  <HET>
 SIA  A 467      39

>  <HETNAM>
     SIA O-SIALIC ACID

>  <Name>
SIA.pdb

>  <RI>
0

>  <Rbt.Current_Directory>
/home/malgorzata/Desktop/rDOCK_IFD/Wyniki/12a_neuraminidase

>  <Rbt.Executable>
rbdock ($Id: //depot/dev/client3/rdock/2013.1/src/exe/rbdock.cxx#4 $)

>  <Rbt.Library>
libRbt.so (2013.1, Build901 2013/11/27)

>  <Rbt.Parameter_File>
/home/malgorzata/Desktop/rDock_2013.1_src/data/scripts/soft_docking.prm

>  <Rbt.Receptor>
cavity.prm

>  <SCORE>
-56.4703

>  <SCORE.INTER>
-29.6914

>  <SCORE.INTER.CONST>
1

>  <SCORE.INTER.POLAR>
-6.62167

>  <SCORE.INTER.REPUL>
0.575549

>  <SCORE.INTER.ROT>
5

>  <SCORE.INTER.VDW>
-20.4554

>  <SCORE.INTER.norm>
-1.41387

>  <SCORE.INTRA>
-4.90156

>  <SCORE.INTRA.DIHEDRAL>
0.26674

>  <SCORE.INTRA.DIHEDRAL.0>
24.6845

>  <SCORE.INTRA.POLAR>
0.887071

>  <SCORE.INTRA.POLAR.0>
-0.967721

>  <SCORE.INTRA.REPUL>
0

>  <SCORE.INTRA.REPUL.0>
0

>  <SCORE.INTRA.VDW>
-7.97095

>  <SCORE.INTRA.VDW.0>
7.44847

>  <SCORE.INTRA.norm>
-0.233408

>  <SCORE.RESTR>
0.139302

>  <SCORE.RESTR.CAVITY>
0.0278604

>  <SCORE.RESTR.norm>
0.00663343

>  <SCORE.SYSTEM>
-22.0167

>  <SCORE.SYSTEM.CONST>
0

>  <SCORE.SYSTEM.DIHEDRAL>
16.1319

>  <SCORE.SYSTEM.POLAR>
-7.03967

>  <SCORE.SYSTEM.REPUL>
0.0340601

>  <SCORE.SYSTEM.VDW>
-6.31808

>  <SCORE.SYSTEM.norm>
-1.04842

>  <SCORE.heavy>
21

>  <SCORE.norm>
-2.68906

$$$$
SIA.pdb
  rDOCK(R)          3D
libRbt.so/2013.1/901 2013/11/27
 28 28  0  0  0  0  0  0  0  0999 V2000
   -6.4494   57.4860   -7.7251 C   0  0  0  0  0  0
   -5.2120   56.6238   -7.9872 C   0  0  0  0  0  0
   -4.9065   55.8122   -9.2397 C   0  0  0  0  0  0
   -3.4187   55.5639   -9.4348 C   0  0  0  0  0  0
   -2.6425   55.6323   -8.1224 C   0  0  0  0  0  0
   -2.7939   57.0395   -7.5359 C   0  0  0  0  0  0
   -2.1399   57.1482   -6.1458 C   0  0  0  0  0  0
   -0.7557   57.7972   -6.2029 C   0  0  0  0  0  0
    0.4414   56.8198   -6.3023 C   0  0  0  0  0  0
   -0.6287   54.2232   -8.6733 C   0  0  0  0  0  0
    0.8237   54.3216   -9.1094 C   0  0  0  0  0  0
   -1.2646   55.3642   -8.4926 N   0  0  0  0  0  0
   -7.5011   56.8352   -7.8688 O   0  0  0  0  0  0
   -6.6059   58.7021   -7.5088 O   0  0  0  0  0  0
   -5.3844   56.0119   -6.7068 O   0  0  0  0  0  0
   -3.2810   54.2592   -9.9474 O   0  0  0  0  0  0
   -4.1831   57.3610   -7.3157 O   0  0  0  0  0  0
   -2.9141   57.9474   -5.2658 O   0  0  0  0  0  0
   -0.7676   58.5410   -7.4005 O   0  0  0  0  0  0
    0.4483   55.9100   -5.2131 O   0  0  0  0  0  0
   -1.2085   53.1574   -8.4583 O   0  0  0  0  0  0
   -0.8173   56.2252   -8.6783 H   0  0  0  0  0  0
   -4.4883   55.6861   -6.4952 H   0  0  0  0  0  0
   -3.4285   54.3216  -10.9121 H   0  0  0  0  0  0
   -3.4983   57.1643   -5.1663 H   0  0  0  0  0  0
   -0.0066   58.2014   -7.8912 H   0  0  0  0  0  0
   -0.2396   55.2889   -5.5223 H   0  0  0  0  0  0
   -5.9161   59.3053   -7.7045 H   0  0  0  0  0  0
  1 13  2  0  0  0
  1 14  1  0  0  0
  2  1  1  0  0  0
  2  3  1  0  0  0
  2 15  1  0  0  0
  2 17  1  0  0  0
  3  4  1  0  0  0
  4  5  1  0  0  0
  4 16  1  0  0  0
  5  6  1  0  0  0
  5 12  1  0  0  0
  6  7  1  0  0  0
  6 17  1  0  0  0
  7  8  1  0  0  0
  7 18  1  0  0  0
  8  9  1  0  0  0
  8 19  1  0  0  0
  9 20  1  0  0  0
 10 11  1  0  0  0
 10 12  1  0  0  0
 10 21  2  0  0  0
 12 22  1  0  0  0
 14 28  1  0  0  0
 15 23  1  0  0  0
 16 24  1  0  0  0
 18 25  1  0  0  0
 19 26  1  0  0  0
 20 27  1  0  0  0
M  END
>  <CHROM.0>
48.59717391,173.40919179,42.74953697,-26.31837777,83.99188376,-100.10259583
-42.80993936,120.20320308,170.48222165,87.27343960

>  <CHROM.1>
16.07056963,54.91557365,-156.70551390,82.78566873,-83.90066575,99.76573240
-94.17653463,77.89317689,-57.47208189,-123.75190228,78.69076058,-2.87590516
56.32322071,-7.62424342,-2.95931677,0.21688082,-2.40959030

>  <FORMUL>
      SIA    C11 H19 N1 O9

>  <HET>
 SIA  A 467      39

>  <HETNAM>
     SIA O-SIALIC ACID

>  <Name>
SIA.pdb

>  <RI>
0

>  <Rbt.Current_Directory>
/home/malgorzata/Desktop/rDOCK_IFD/Wyniki/12a_neuraminidase

>  <Rbt.Executable>
rbdock ($Id: //depot/dev/client3/rdock/2013.1/src/exe/rbdock.cxx#4 $)

>  <Rbt.Library>
libRbt.so (2013.1, Build901 2013/11/27)

>  <Rbt.Parameter_File>
/home/malgorzata/Desktop/rDock_2013.1_src/data/scripts/soft_docking.prm

>  <Rbt.Receptor>
cavity.prm

>  <SCORE>
-59.2576

>  <SCORE.INTER>
-30.5718

>  <SCORE.INTER.CONST>
1

>  <SCORE.INTER.POLAR>
-7.0225

>  <SCORE.INTER.REPUL>
0.194941

>  <SCORE.INTER.ROT>
5

>  <SCORE.INTER.VDW>
-18.07

>  <SCORE.INTER.norm>
-1.4558

>  <SCORE.INTRA>
-0.691133

>  <SCORE.INTRA.DIHEDRAL>
1.86488

>  <SCORE.INTRA.DIHEDRAL.0>
24.6845

>  <SCORE.INTRA.POLAR>
0.967721

>  <SCORE.INTRA.POLAR.0>
-0.967721

>  <SCORE.INTRA.REPUL>
0

>  <SCORE.INTRA.REPUL.0>
0

>  <SCORE.INTRA.VDW>
-4.35436

>  <SCORE.INTRA.VDW.0>
7.44847

>  <SCORE.INTRA.norm>
-0.0329111

>  <SCORE.RESTR>
0.958077

>  <SCORE.RESTR.CAVITY>
0.191615

>  <SCORE.RESTR.norm>
0.0456227

>  <SCORE.SYSTEM>
-28.9528

>  <SCORE.SYSTEM.CONST>
0

>  <SCORE.SYSTEM.DIHEDRAL>
4.75832

>  <SCORE.SYSTEM.POLAR>
-7.11265

>  <SCORE.SYSTEM.REPUL>
0.0340601

>  <SCORE.SYSTEM.VDW>
-7.31925

>  <SCORE.SYSTEM.norm>
-1.3787

>  <SCORE.heavy>
21

>  <SCORE.norm>
-2.82179

$$$$
SIA.pdb
  rDOCK(R)          3D
libRbt.so/2013.1/901 2013/11/27
 28 28  0  0  0  0  0  0  0  0999 V2000
   -1.9714   57.5644   -4.7229 C   0  0  0  0  0  0
   -2.7600   58.4375   -5.7023 C   0  0  0  0  0  0
   -2.2772   59.7037   -6.3980 C   0  0  0  0  0  0
   -3.0257   59.9900   -7.6907 C   0  0  0  0  0  0
   -4.4127   59.3533   -7.7107 C   0  0  0  0  0  0
   -4.2559   57.8329   -7.6051 C   0  0  0  0  0  0
   -5.6207   57.1283   -7.4929 C   0  0  0  0  0  0
   -6.3875   57.1304   -8.8168 C   0  0  0  0  0  0
   -6.0331   55.9881   -9.8006 C   0  0  0  0  0  0
   -6.0204   60.4857   -9.2847 C   0  0  0  0  0  0
   -6.2970   60.7127  -10.7616 C   0  0  0  0  0  0
   -4.9768   59.7343   -8.9930 N   0  0  0  0  0  0
   -1.3319   56.6745   -5.3139 O   0  0  0  0  0  0
   -1.9329   57.5058   -3.4798 O   0  0  0  0  0  0
   -3.8605   58.4426   -4.7898 O   0  0  0  0  0  0
   -3.1933   61.3862   -7.7709 O   0  0  0  0  0  0
   -3.5527   57.4684   -6.3992 O   0  0  0  0  0  0
   -5.4760   55.7662   -7.1232 O   0  0  0  0  0  0
   -7.7324   56.9351   -8.4420 O   0  0  0  0  0  0
   -6.6536   56.1901  -11.0609 O   0  0  0  0  0  0
   -6.7257   60.9336   -8.3791 O   0  0  0  0  0  0
   -4.3927   59.3835   -9.7083 H   0  0  0  0  0  0
   -4.4983   59.0469   -5.2162 H   0  0  0  0  0  0
   -2.3504   61.7493   -8.1089 H   0  0  0  0  0  0
   -5.1870   56.0984   -6.2454 H   0  0  0  0  0  0
   -7.7294   56.0683   -8.0131 H   0  0  0  0  0  0
   -7.3752   55.5355  -10.9879 H   0  0  0  0  0  0
   -1.9668   56.6746   -3.0487 H   0  0  0  0  0  0
  1 13  2  0  0  0
  1 14  1  0  0  0
  2  1  1  0  0  0
  2  3  1  0  0  0
  2 15  1  0  0  0
  2 17  1  0  0  0
  3  4  1  0  0  0
  4  5  1  0  0  0
  4 16  1  0  0  0
  5  6  1  0  0  0
  5 12  1  0  0  0
  6  7  1  0  0  0
  6 17  1  0  0  0
  7  8  1  0  0  0
  7 18  1  0  0  0
  8  9  1  0  0  0
  8 19  1  0  0  0
  9 20  1  0  0  0
 10 11  1  0  0  0
 10 12  1  0  0  0
 10 21  2  0  0  0
 12 22  1  0  0  0
 14 28  1  0  0  0
 15 23  1  0  0  0
 16 24  1  0  0  0
 18 25  1  0  0  0
 19 26  1  0  0  0
 20 27  1  0  0  0
M  END
>  <CHROM.0>
165.36569291,-160.05464680,-38.85364035,-74.78097700,-18.23667612,-149.60320983
138.43348260,134.45370667,-154.65875040,8.92527125

>  <CHROM.1>
134.08725306,-89.40239043,175.40162816,80.94873216,-115.71529604,72.92628032
84.71782444,69.32458392,-171.65500162,-61.70502983,-103.81253453,-4.52595146
58.31265754,-7.49953068,0.28290400,0.79672719,2.82109047

>  <FORMUL>
      SIA    C11 H19 N1 O9

>  <HET>
 SIA  A 467      39

>  <HETNAM>
     SIA O-SIALIC ACID

>  <Name>
SIA.pdb

>  <RI>
0

>  <Rbt.Current_Directory>
/home/malgorzata/Desktop/rDOCK_IFD/Wyniki/12a_neuraminidase

>  <Rbt.Executable>
rbdock ($Id: //depot/dev/client3/rdock/2013.1/src/exe/rbdock.cxx#4 $)

>  <Rbt.Library>
libRbt.so (2013.1, Build901 2013/11/27)

>  <Rbt.Parameter_File>
/home/malgorzata/Desktop/rDock_2013.1_src/data/scripts/soft_docking.prm

>  <Rbt.Receptor>
cavity.prm

>  <SCORE>
-73.6922

>  <SCORE.INTER>
-42.6272

>  <SCORE.INTER.CONST>
1

>  <SCORE.INTER.POLAR>
-10.6391

>  <SCORE.INTER.REPUL>
0.271123

>  <SCORE.INTER.ROT>
5

>  <SCORE.INTER.VDW>
-18.2101

>  <SCORE.INTER.norm>
-2.02987

>  <SCORE.INTRA>
-5.54446

>  <SCORE.INTRA.DIHEDRAL>
1.10409

>  <SCORE.INTRA.DIHEDRAL.0>
24.6845

>  <SCORE.INTRA.POLAR>
0.737812

>  <SCORE.INTRA.POLAR.0>
-0.967721

>  <SCORE.INTRA.REPUL>
0

>  <SCORE.INTRA.REPUL.0>
0

>  <SCORE.INTRA.VDW>
-8.27383

>  <SCORE.INTRA.VDW.0>
7.44847

>  <SCORE.INTRA.norm>
-0.264022

>  <SCORE.RESTR>
0

>  <SCORE.RESTR.CAVITY>
0

>  <SCORE.RESTR.norm>
0

>  <SCORE.SYSTEM>
-25.5204

>  <SCORE.SYSTEM.CONST>
0

>  <SCORE.SYSTEM.DIHEDRAL>
7.98645

>  <SCORE.SYSTEM.POLAR>
-6.59765

>  <SCORE.SYSTEM.REPUL>
0.0340601

>  <SCORE.SYSTEM.VDW>
-7.25195

>  <SCORE.SYSTEM.norm>
-1.21526

>  <SCORE.heavy>
21

>  <SCORE.norm>
-3.50915

$$$$
SIA.pdb
  rDOCK(R)          3D
libRbt.so/2013.1/901 2013/11/27
 28 28  0  0  0  0  0  0  0  0999 V2000
   -0.9636   57.1938   -5.7728 C   0  0  0  0  0  0
   -2.2402   56.5848   -6.3583 C   0  0  0  0  0  0
   -3.6374   57.1915   -6.3446 C   0  0  0  0  0  0
   -4.5223   56.6632   -7.4632 C   0  0  0  0  0  0
   -4.0780   55.2877   -7.9532 C   0  0  0  0  0  0
   -2.6574   55.4027   -8.5153 C   0  0  0  0  0  0
   -2.0926   54.0269   -8.9156 C   0  0  0  0  0  0
   -1.1946   54.1037  -10.1518 C   0  0  0  0  0  0
   -1.9171   54.3940  -11.4904 C   0  0  0  0  0  0
   -5.5507   55.6722   -9.9602 C   0  0  0  0  0  0
   -6.4919   54.9564  -10.9147 C   0  0  0  0  0  0
   -5.0276   54.9413   -8.9954 N   0  0  0  0  0  0
   -1.1926   57.8122   -4.7168 O   0  0  0  0  0  0
    0.2054   57.2797   -6.1926 O   0  0  0  0  0  0
   -1.9386   55.3531   -5.6984 O   0  0  0  0  0  0
   -5.8215   56.5318   -6.9354 O   0  0  0  0  0  0
   -1.7442   55.8989   -7.5145 O   0  0  0  0  0  0
   -1.2952   53.4696   -7.8830 O   0  0  0  0  0  0
   -0.3512   55.2057   -9.9032 O   0  0  0  0  0  0
   -3.0467   53.5503  -11.6533 O   0  0  0  0  0  0
   -5.2893   56.8743  -10.0293 O   0  0  0  0  0  0
   -5.2146   53.9729   -8.9388 H   0  0  0  0  0  0
   -2.6210   54.7451   -6.0426 H   0  0  0  0  0  0
   -5.7258   56.1007   -6.0628 H   0  0  0  0  0  0
   -1.7095   52.6089   -8.1110 H   0  0  0  0  0  0
    0.3397   54.8438   -9.3315 H   0  0  0  0  0  0
   -3.5010   53.7303  -10.8072 H   0  0  0  0  0  0
    0.3674   57.3869   -7.1092 H   0  0  0  0  0  0
  1 13  2  0  0  0
  1 14  1  0  0  0
  2  1  1  0  0  0
  2  3  1  0  0  0
  2 15  1  0  0  0
  2 17  1  0  0  0
  3  4  1  0  0  0
  4  5  1  0  0  0
  4 16  1  0  0  0
  5  6  1  0  0  0
  5 12  1  0  0  0
  6  7  1  0  0  0
  6 17  1  0  0  0
  7  8  1  0  0  0
  7 18  1  0  0  0
  8  9  1  0  0  0
  8 19  1  0  0  0
  9 20  1  0  0  0
 10 11  1  0  0  0
 10 12  1  0  0  0
 10 21  2  0  0  0
 12 22  1  0  0  0
 14 28  1  0  0  0
 15 23  1  0  0  0
 16 24  1  0  0  0
 18 25  1  0  0  0
 19 26  1  0  0  0
 20 27  1  0  0  0
M  END
>  <CHROM.0>
-164.56676779,45.57690421,61.50847444,94.13000715,-13.60344350,-14.91927721
-146.86019321,2.04631271,-163.66466038,101.27795827

>  <CHROM.1>
34.03082014,36.45265607,-173.29992452,-45.36648976,41.76694836,145.00471380
-70.43510358,140.02921747,-48.22561347,81.66414033,52.94986180,-2.86549674
55.61597801,-8.24719055,-1.02067880,0.20252973,-2.10808133

>  <FORMUL>
      SIA    C11 H19 N1 O9

>  <HET>
 SIA  A 467      39

>  <HETNAM>
     SIA O-SIALIC ACID

>  <Name>
SIA.pdb

>  <RI>
0

>  <Rbt.Current_Directory>
/home/malgorzata/Desktop/rDOCK_IFD/Wyniki/12a_neuraminidase

>  <Rbt.Executable>
rbdock ($Id: //depot/dev/client3/rdock/2013.1/src/exe/rbdock.cxx#4 $)

>  <Rbt.Library>
libRbt.so (2013.1, Build901 2013/11/27)

>  <Rbt.Parameter_File>
/home/malgorzata/Desktop/rDock_2013.1_src/data/scripts/soft_docking.prm

>  <Rbt.Receptor>
cavity.prm

>  <SCORE>
-56.9193

>  <SCORE.INTER>
-24.4567

>  <SCORE.INTER.CONST>
1

>  <SCORE.INTER.POLAR>
-5.71869

>  <SCORE.INTER.REPUL>
0.0732751

>  <SCORE.INTER.ROT>
5

>  <SCORE.INTER.VDW>
-15.7795

>  <SCORE.INTER.norm>
-1.16461

>  <SCORE.INTRA>
-4.48278

>  <SCORE.INTRA.DIHEDRAL>
-0.0205

>  <SCORE.INTRA.DIHEDRAL.0>
24.6845

>  <SCORE.INTRA.POLAR>
0.967721

>  <SCORE.INTRA.POLAR.0>
-0.967721

>  <SCORE.INTRA.REPUL>
0

>  <SCORE.INTRA.REPUL.0>
0

>  <SCORE.INTRA.VDW>
-7.76893

>  <SCORE.INTRA.VDW.0>
7.44847

>  <SCORE.INTRA.norm>
-0.213466

>  <SCORE.RESTR>
0

>  <SCORE.RESTR.CAVITY>
0

>  <SCORE.RESTR.norm>
0

>  <SCORE.SYSTEM>
-27.9798

>  <SCORE.SYSTEM.CONST>
0

>  <SCORE.SYSTEM.DIHEDRAL>
4.78745

>  <SCORE.SYSTEM.POLAR>
-7.07916

>  <SCORE.SYSTEM.REPUL>
0.0340601

>  <SCORE.SYSTEM.VDW>
-6.47472

>  <SCORE.SYSTEM.norm>
-1.33237

>  <SCORE.heavy>
21

>  <SCORE.norm>
-2.71044

$$$$
SIA.pdb
  rDOCK(R)          3D
libRbt.so/2013.1/901 2013/11/27
 28 28  0  0  0  0  0  0  0  0999 V2000
   -1.8842   58.5139   -5.0261 C   0  0  0  0  0  0
   -2.9676   59.1245   -5.9187 C   0  0  0  0  0  0
   -2.8313   60.3378   -6.8296 C   0  0  0  0  0  0
   -3.8359   60.3355   -7.9716 C   0  0  0  0  0  0
   -5.0807   59.5141   -7.6470 C   0  0  0  0  0  0
   -4.6607   58.0599   -7.4101 C   0  0  0  0  0  0
   -5.8491   57.1933   -6.9537 C   0  0  0  0  0  0
   -6.8717   56.9732   -8.0702 C   0  0  0  0  0  0
   -7.3212   55.5078   -8.2907 C   0  0  0  0  0  0
   -5.8553   59.0209   -9.9925 C   0  0  0  0  0  0
   -6.9459   59.3618  -10.9943 C   0  0  0  0  0  0
   -5.9200   59.6319   -8.8257 N   0  0  0  0  0  0
   -0.9148   59.2832   -4.8894 O   0  0  0  0  0  0
   -1.7413   57.3878   -4.5147 O   0  0  0  0  0  0
   -3.8726   59.1011   -4.8122 O   0  0  0  0  0  0
   -4.2414   61.6699   -8.1681 O   0  0  0  0  0  0
   -3.7027   57.9672   -6.3351 O   0  0  0  0  0  0
   -5.4269   55.9018   -6.5456 O   0  0  0  0  0  0
   -8.0124   57.6837   -7.6444 O   0  0  0  0  0  0
   -6.3132   54.7595   -8.9526 O   0  0  0  0  0  0
   -4.9262   58.2468  -10.2285 O   0  0  0  0  0  0
   -6.6690   60.2412   -8.6168 H   0  0  0  0  0  0
   -4.6725   59.5308   -5.1719 H   0  0  0  0  0  0
   -3.8509   61.9579   -9.0173 H   0  0  0  0  0  0
   -5.9286   56.0662   -5.7174 H   0  0  0  0  0  0
   -8.6565   57.5310   -8.3495 H   0  0  0  0  0  0
   -6.3914   55.1461   -9.8465 H   0  0  0  0  0  0
   -1.4040   56.6797   -5.0275 H   0  0  0  0  0  0
  1 13  2  0  0  0
  1 14  1  0  0  0
  2  1  1  0  0  0
  2  3  1  0  0  0
  2 15  1  0  0  0
  2 17  1  0  0  0
  3  4  1  0  0  0
  4  5  1  0  0  0
  4 16  1  0  0  0
  5  6  1  0  0  0
  5 12  1  0  0  0
  6  7  1  0  0  0
  6 17  1  0  0  0
  7  8  1  0  0  0
  7 18  1  0  0  0
  8  9  1  0  0  0
  8 19  1  0  0  0
  9 20  1  0  0  0
 10 11  1  0  0  0
 10 12  1  0  0  0
 10 21  2  0  0  0
 12 22  1  0  0  0
 14 28  1  0  0  0
 15 23  1  0  0  0
 16 24  1  0  0  0
 18 25  1  0  0  0
 19 26  1  0  0  0
 20 27  1  0  0  0
M  END
>  <CHROM.0>
-95.11373759,67.01232224,170.81547111,100.32840408,18.66122147,-33.96646706
-118.90194801,132.09581334,-162.85977662,28.16769113

>  <CHROM.1>
80.58393375,14.34527538,176.40784736,109.37682206,78.56546796,69.59943777
131.24074502,128.09441339,-75.23058627,-179.35058453,-72.37514856,-4.73693239
58.32757690,-7.41563846,0.07726477,0.73277083,2.59908606

>  <FORMUL>
      SIA    C11 H19 N1 O9

>  <HET>
 SIA  A 467      39

>  <HETNAM>
     SIA O-SIALIC ACID

>  <Name>
SIA.pdb

>  <RI>
0

>  <Rbt.Current_Directory>
/home/malgorzata/Desktop/rDOCK_IFD/Wyniki/12a_neuraminidase

>  <Rbt.Executable>
rbdock ($Id: //depot/dev/client3/rdock/2013.1/src/exe/rbdock.cxx#4 $)

>  <Rbt.Library>
libRbt.so (2013.1, Build901 2013/11/27)

>  <Rbt.Parameter_File>
/home/malgorzata/Desktop/rDock_2013.1_src/data/scripts/soft_docking.prm

>  <Rbt.Receptor>
cavity.prm

>  <SCORE>
-60.1058

>  <SCORE.INTER>
-33.9164

>  <SCORE.INTER.CONST>
1

>  <SCORE.INTER.POLAR>
-8.7679

>  <SCORE.INTER.REPUL>
0.486769

>  <SCORE.INTER.ROT>
5

>  <SCORE.INTER.VDW>
-16.9394

>  <SCORE.INTER.norm>
-1.61507

>  <SCORE.INTRA>
-1.01453

>  <SCORE.INTRA.DIHEDRAL>
21.7376

>  <SCORE.INTRA.DIHEDRAL.0>
24.6845

>  <SCORE.INTRA.POLAR>
0.967721

>  <SCORE.INTRA.POLAR.0>
-0.967721

>  <SCORE.INTRA.REPUL>
0

>  <SCORE.INTRA.REPUL.0>
0

>  <SCORE.INTRA.VDW>
-8.6523

>  <SCORE.INTRA.VDW.0>
7.44847

>  <SCORE.INTRA.norm>
-0.0483109

>  <SCORE.RESTR>
0

>  <SCORE.RESTR.CAVITY>
0

>  <SCORE.RESTR.norm>
0

>  <SCORE.SYSTEM>
-25.1748

>  <SCORE.SYSTEM.CONST>
0

>  <SCORE.SYSTEM.DIHEDRAL>
7.95437

>  <SCORE.SYSTEM.POLAR>
-6.6567

>  <SCORE.SYSTEM.REPUL>
0.0340601

>  <SCORE.SYSTEM.VDW>
-6.68955

>  <SCORE.SYSTEM.norm>
-1.1988

>  <SCORE.heavy>
21

>  <SCORE.norm>
-2.86218

$$$$
SIA.pdb
  rDOCK(R)          3D
libRbt.so/2013.1/901 2013/11/27
 28 28  0  0  0  0  0  0  0  0999 V2000
   -1.5055   57.5945   -5.1879 C   0  0  0  0  0  0
   -2.2840   58.5066   -6.1394 C   0  0  0  0  0  0
   -1.7109   59.5730   -7.0640 C   0  0  0  0  0  0
   -2.6137   59.8739   -8.2505 C   0  0  0  0  0  0
   -4.0743   59.5320   -7.9690 C   0  0  0  0  0  0
   -4.1809   58.0297   -7.6881 C   0  0  0  0  0  0
   -5.6088   57.6303   -7.2717 C   0  0  0  0  0  0
   -6.5662   57.5665   -8.4633 C   0  0  0  0  0  0
   -6.2009   56.5413   -9.5649 C   0  0  0  0  0  0
   -5.7262   60.7812   -9.4026 C   0  0  0  0  0  0
   -6.2087   60.9198  -10.8369 C   0  0  0  0  0  0
   -4.7796   59.8890   -9.1867 N   0  0  0  0  0  0
   -0.8937   58.2487   -4.3231 O   0  0  0  0  0  0
   -1.2850   56.3692   -5.1778 O   0  0  0  0  0  0
   -3.1838   58.8253   -5.0753 O   0  0  0  0  0  0
   -2.5355   61.2600   -8.4883 O   0  0  0  0  0  0
   -3.3517   57.6530   -6.5691 O   0  0  0  0  0  0
   -5.6375   56.3442   -6.6735 O   0  0  0  0  0  0
   -7.7891   57.1394   -7.9066 O   0  0  0  0  0  0
   -7.2749   56.3679  -10.4763 O   0  0  0  0  0  0
   -6.1893   61.4243   -8.4591 O   0  0  0  0  0  0
   -4.3870   59.3793   -9.9364 H   0  0  0  0  0  0
   -3.7087   59.5623   -5.4430 H   0  0  0  0  0  0
   -1.5841   61.4827   -8.5295 H   0  0  0  0  0  0
   -4.8207   56.6135   -6.1994 H   0  0  0  0  0  0
   -8.4520   57.4519   -8.5376 H   0  0  0  0  0  0
   -7.2778   57.2545  -10.8868 H   0  0  0  0  0  0
   -0.8684   55.9742   -4.4371 H   0  0  0  0  0  0
  1 13  2  0  0  0
  1 14  1  0  0  0
  2  1  1  0  0  0
  2  3  1  0  0  0
  2 15  1  0  0  0
  2 17  1  0  0  0
  3  4  1  0  0  0
  4  5  1  0  0  0
  4 16  1  0  0  0
  5  6  1  0  0  0
  5 12  1  0  0  0
  6  7  1  0  0  0
  6 17  1  0  0  0
  7  8  1  0  0  0
  7 18  1  0  0  0
  8  9  1  0  0  0
  8 19  1  0  0  0
  9 20  1  0  0  0
 10 11  1  0  0  0
 10 12  1  0  0  0
 10 21  2  0  0  0
 12 22  1  0  0  0
 14 28  1  0  0  0
 15 23  1  0  0  0
 16 24  1  0  0  0
 18 25  1  0  0  0
 19 26  1  0  0  0
 20 27  1  0  0  0
M  END
>  <CHROM.0>
-35.62418731,-134.35577910,31.43005985,163.15943305,-78.41261240,128.36849609
-28.03383691,104.03280897,-125.27200672,-116.64018103

>  <CHROM.1>
-172.10478652,61.53780732,169.96996545,50.46886180,-117.53436470,76.65363062
60.94905612,42.06834805,168.18045648,156.76644075,66.96532734,-4.29116816
58.54546088,-7.61364150,0.38037631,0.58929143,2.63491234

>  <FORMUL>
      SIA    C11 H19 N1 O9

>  <HET>
 SIA  A 467      39

>  <HETNAM>
     SIA O-SIALIC ACID

>  <Name>
SIA.pdb

>  <RI>
0

>  <Rbt.Current_Directory>
/home/malgorzata/Desktop/rDOCK_IFD/Wyniki/12a_neuraminidase

>  <Rbt.Executable>
rbdock ($Id: //depot/dev/client3/rdock/2013.1/src/exe/rbdock.cxx#4 $)

>  <Rbt.Library>
libRbt.so (2013.1, Build901 2013/11/27)

>  <Rbt.Parameter_File>
/home/malgorzata/Desktop/rDock_2013.1_src/data/scripts/soft_docking.prm

>  <Rbt.Receptor>
cavity.prm

>  <SCORE>
-67.5703

>  <SCORE.INTER>
-37.6595

>  <SCORE.INTER.CONST>
1

>  <SCORE.INTER.POLAR>
-9.27691

>  <SCORE.INTER.REPUL>
0.346221

>  <SCORE.INTER.ROT>
5

>  <SCORE.INTER.VDW>
-18.2492

>  <SCORE.INTER.norm>
-1.79331

>  <SCORE.INTRA>
-7.8723

>  <SCORE.INTRA.DIHEDRAL>
-12.1728

>  <SCORE.INTRA.DIHEDRAL.0>
24.6845

>  <SCORE.INTRA.POLAR>
0.26842

>  <SCORE.INTRA.POLAR.0>
-0.967721

>  <SCORE.INTRA.REPUL>
0

>  <SCORE.INTRA.REPUL.0>
0

>  <SCORE.INTRA.VDW>
-6.35037

>  <SCORE.INTRA.VDW.0>
7.44847

>  <SCORE.INTRA.norm>
-0.374871

>  <SCORE.RESTR>
0

>  <SCORE.RESTR.CAVITY>
0

>  <SCORE.RESTR.norm>
0

>  <SCORE.SYSTEM>
-22.0385

>  <SCORE.SYSTEM.CONST>
0

>  <SCORE.SYSTEM.DIHEDRAL>
17.6114

>  <SCORE.SYSTEM.POLAR>
-7.29241

>  <SCORE.SYSTEM.REPUL>
0.0340601

>  <SCORE.SYSTEM.VDW>
-6.22028

>  <SCORE.SYSTEM.norm>
-1.04945

>  <SCORE.heavy>
21

>  <SCORE.norm>
-3.21763

$$$$
SIA.pdb
  rDOCK(R)          3D
libRbt.so/2013.1/901 2013/11/27
 28 28  0  0  0  0  0  0  0  0999 V2000
   -0.1664   60.9721   -5.6153 C   0  0  0  0  0  0
   -0.8009   59.5833   -5.7234 C   0  0  0  0  0  0
   -2.2871   59.2489   -5.7112 C   0  0  0  0  0  0
   -2.6018   57.9297   -6.3998 C   0  0  0  0  0  0
   -1.4050   56.9826   -6.4128 C   0  0  0  0  0  0
   -0.2659   57.6424   -7.1967 C   0  0  0  0  0  0
    1.0209   56.7977   -7.1467 C   0  0  0  0  0  0
    2.0336   57.2161   -8.2144 C   0  0  0  0  0  0
    2.6097   58.6464   -8.0707 C   0  0  0  0  0  0
   -2.7079   55.6509   -8.1080 C   0  0  0  0  0  0
   -2.9528   54.2305   -8.5893 C   0  0  0  0  0  0
   -1.8838   55.7899   -7.0880 N   0  0  0  0  0  0
    0.4020   61.3006   -6.6732 O   0  0  0  0  0  0
   -0.0198   61.7667   -4.6680 O   0  0  0  0  0  0
    0.0939   59.1112   -4.7133 O   0  0  0  0  0  0
   -3.6296   57.3124   -5.6606 O   0  0  0  0  0  0
    0.1008   58.9079   -6.6087 O   0  0  0  0  0  0
    1.6846   56.9312   -5.8999 O   0  0  0  0  0  0
    3.1143   56.3281   -8.0381 O   0  0  0  0  0  0
    4.0185   58.6138   -7.9022 O   0  0  0  0  0  0
   -3.2536   56.6426   -8.5949 O   0  0  0  0  0  0
   -1.4259   55.0054   -6.6997 H   0  0  0  0  0  0
   -0.2402   59.5423   -3.9031 H   0  0  0  0  0  0
   -3.2236   56.9960   -4.8290 H   0  0  0  0  0  0
    1.5168   55.9714   -5.7769 H   0  0  0  0  0  0
    2.7129   55.4534   -8.1338 H   0  0  0  0  0  0
    4.0738   58.9241   -6.9775 H   0  0  0  0  0  0
    0.2024   62.6612   -4.8368 H   0  0  0  0  0  0
  1 13  2  0  0  0
  1 14  1  0  0  0
  2  1  1  0  0  0
  2  3  1  0  0  0
  2 15  1  0  0  0
  2 17  1  0  0  0
  3  4  1  0  0  0
  4  5  1  0  0  0
  4 16  1  0  0  0
  5  6  1  0  0  0
  5 12  1  0  0  0
  6  7  1  0  0  0
  6 17  1  0  0  0
  7  8  1  0  0  0
  7 18  1  0  0  0
  8  9  1  0  0  0
  8 19  1  0  0  0
  9 20  1  0  0  0
 10 11  1  0  0  0
 10 12  1  0  0  0
 10 21  2  0  0  0
 12 22  1  0  0  0
 14 28  1  0  0  0
 15 23  1  0  0  0
 16 24  1  0  0  0
 18 25  1  0  0  0
 19 26  1  0  0  0
 20 27  1  0  0  0
M  END
>  <CHROM.0>
-148.72975474,80.23454993,72.07880091,142.03513783,86.00605746,142.52438077
-8.58863629,112.12004525,-171.69891699,100.31387887

>  <CHROM.1>
-164.57642011,-112.83247023,71.13171369,-72.60348439,37.08975945,164.08828834
64.56407547,116.90794479,119.34909593,57.00758928,-111.95241351,-0.26654122
57.99337687,-6.78165758,0.60699727,0.18923984,0.50326808

>  <FORMUL>
      SIA    C11 H19 N1 O9

>  <HET>
 SIA  A 467      39

>  <HETNAM>
     SIA O-SIALIC ACID

>  <Name>
SIA.pdb

>  <RI>
0

>  <Rbt.Current_Directory>
/home/malgorzata/Desktop/rDOCK_IFD/Wyniki/12a_neuraminidase

>  <Rbt.Executable>
rbdock ($Id: //depot/dev/client3/rdock/2013.1/src/exe/rbdock.cxx#4 $)

>  <Rbt.Library>
libRbt.so (2013.1, Build901 2013/11/27)

>  <Rbt.Parameter_File>
/home/malgorzata/Desktop/rDock_2013.1_src/data/scripts/soft_docking.prm

>  <Rbt.Receptor>
cavity.prm

>  <SCORE>
-58.0925

>  <SCORE.INTER>
-28.153

>  <SCORE.INTER.CONST>
1

>  <SCORE.INTER.POLAR>
-5.93165

>  <SCORE.INTER.REPUL>
0.211347

>  <SCORE.INTER.ROT>
5

>  <SCORE.INTER.VDW>
-19.4421

>  <SCORE.INTER.norm>
-1.34062

>  <SCORE.INTRA>
-2.33228

>  <SCORE.INTRA.DIHEDRAL>
0.766198

>  <SCORE.INTRA.DIHEDRAL.0>
24.6845

>  <SCORE.INTRA.POLAR>
0.967721

>  <SCORE.INTRA.POLAR.0>
-0.967721

>  <SCORE.INTRA.REPUL>
0

>  <SCORE.INTRA.REPUL.0>
0

>  <SCORE.INTRA.VDW>
-5.77578

>  <SCORE.INTRA.VDW.0>
7.44847

>  <SCORE.INTRA.norm>
-0.111061

>  <SCORE.RESTR>
0

>  <SCORE.RESTR.CAVITY>
0

>  <SCORE.RESTR.norm>
0

>  <SCORE.SYSTEM>
-27.6072

>  <SCORE.SYSTEM.CONST>
0

>  <SCORE.SYSTEM.DIHEDRAL>
8.8449

>  <SCORE.SYSTEM.POLAR>
-7.20964

>  <SCORE.SYSTEM.REPUL>
0.0340601

>  <SCORE.SYSTEM.VDW>
-7.68719

>  <SCORE.SYSTEM.norm>
-1.31463

>  <SCORE.heavy>
21

>  <SCORE.norm>
-2.76631

$$$$
SIA.pdb
  rDOCK(R)          3D
libRbt.so/2013.1/901 2013/11/27
 28 28  0  0  0  0  0  0  0  0999 V2000
   -3.0669   54.1438   -7.7256 C   0  0  0  0  0  0
   -1.7765   54.9392   -7.5122 C   0  0  0  0  0  0
   -0.5546   54.9687   -8.4214 C   0  0  0  0  0  0
    0.2695   56.2372   -8.2630 C   0  0  0  0  0  0
    0.0738   56.8890   -6.8969 C   0  0  0  0  0  0
   -1.3990   57.2841   -6.7485 C   0  0  0  0  0  0
   -1.6995   57.8358   -5.3424 C   0  0  0  0  0  0
   -0.8672   59.0768   -5.0139 C   0  0  0  0  0  0
   -1.6456   60.4146   -4.9653 C   0  0  0  0  0  0
    2.1938   58.2092   -6.5693 C   0  0  0  0  0  0
    2.7923   59.5911   -6.7730 C   0  0  0  0  0  0
    0.9311   58.0604   -6.9191 N   0  0  0  0  0  0
   -4.0675   54.8846   -7.7290 O   0  0  0  0  0  0
   -3.3119   52.9246   -7.7859 O   0  0  0  0  0  0
   -1.7149   54.4523   -6.1696 O   0  0  0  0  0  0
    1.6240   55.8664   -8.3716 O   0  0  0  0  0  0
   -2.2590   56.1335   -6.8845 O   0  0  0  0  0  0
   -3.0573   58.2265   -5.2143 O   0  0  0  0  0  0
   -0.3900   58.8420   -3.7083 O   0  0  0  0  0  0
   -0.9236   61.3983   -4.2405 O   0  0  0  0  0  0
    2.8096   57.2618   -6.0780 O   0  0  0  0  0  0
    0.4309   58.8064   -7.3304 H   0  0  0  0  0  0
   -1.1515   55.1120   -5.7209 H   0  0  0  0  0  0
    1.6522   55.0798   -8.9519 H   0  0  0  0  0  0
   -3.0575   57.7279   -4.3681 H   0  0  0  0  0  0
    0.5705   58.8080   -3.8158 H   0  0  0  0  0  0
   -0.3875   60.8126   -3.6713 H   0  0  0  0  0  0
   -2.6717   52.3033   -7.4993 H   0  0  0  0  0  0
  1 13  2  0  0  0
  1 14  1  0  0  0
  2  1  1  0  0  0
  2  3  1  0  0  0
  2 15  1  0  0  0
  2 17  1  0  0  0
  3  4  1  0  0  0
  4  5  1  0  0  0
  4 16  1  0  0  0
  5  6  1  0  0  0
  5 12  1  0  0  0
  6  7  1  0  0  0
  6 17  1  0  0  0
  7  8  1  0  0  0
  7 18  1  0  0  0
  8  9  1  0  0  0
  8 19  1  0  0  0
  9 20  1  0  0  0
 10 11  1  0  0  0
 10 12  1  0  0  0
 10 21  2  0  0  0
 12 22  1  0  0  0
 14 28  1  0  0  0
 15 23  1  0  0  0
 16 24  1  0  0  0
 18 25  1  0  0  0
 19 26  1  0  0  0
 20 27  1  0  0  0
M  END
>  <CHROM.0>
-41.71227717,-79.61465333,68.92930759,89.91299531,129.39946537,-81.17756862
179.03659396,94.12984103,164.70153672,59.02999784

>  <CHROM.1>
14.06370211,-123.49649505,-158.05793712,29.08578429,-89.71236460,59.74874958
108.98819660,132.54554147,160.53360353,117.11384258,-25.21292668,-0.77640490
57.03364006,-6.49605230,2.06070830,-0.26481903,-2.57780388

>  <FORMUL>
      SIA    C11 H19 N1 O9

>  <HET>
 SIA  A 467      39

>  <HETNAM>
     SIA O-SIALIC ACID

>  <Name>
SIA.pdb

>  <RI>
0

>  <Rbt.Current_Directory>
/home/malgorzata/Desktop/rDOCK_IFD/Wyniki/12a_neuraminidase

>  <Rbt.Executable>
rbdock ($Id: //depot/dev/client3/rdock/2013.1/src/exe/rbdock.cxx#4 $)

>  <Rbt.Library>
libRbt.so (2013.1, Build901 2013/11/27)

>  <Rbt.Parameter_File>
/home/malgorzata/Desktop/rDock_2013.1_src/data/scripts/soft_docking.prm

>  <Rbt.Receptor>
cavity.prm

>  <SCORE>
-61.6019

>  <SCORE.INTER>
-34.5602

>  <SCORE.INTER.CONST>
1

>  <SCORE.INTER.POLAR>
-6.67894

>  <SCORE.INTER.REPUL>
0.119707

>  <SCORE.INTER.ROT>
5

>  <SCORE.INTER.VDW>
-22.8503

>  <SCORE.INTER.norm>
-1.64572

>  <SCORE.INTRA>
0.0333413

>  <SCORE.INTRA.DIHEDRAL>
7.95146

>  <SCORE.INTRA.DIHEDRAL.0>
24.6845

>  <SCORE.INTRA.POLAR>
0.712874

>  <SCORE.INTRA.POLAR.0>
-0.967721

>  <SCORE.INTRA.REPUL>
0

>  <SCORE.INTRA.REPUL.0>
0

>  <SCORE.INTRA.VDW>
-3.98072

>  <SCORE.INTRA.VDW.0>
7.44847

>  <SCORE.INTRA.norm>
0.00158768

>  <SCORE.RESTR>
0.0334342

>  <SCORE.RESTR.CAVITY>
0.00668684

>  <SCORE.RESTR.norm>
0.0015921

>  <SCORE.SYSTEM>
-27.1085

>  <SCORE.SYSTEM.CONST>
0

>  <SCORE.SYSTEM.DIHEDRAL>
6.46802

>  <SCORE.SYSTEM.POLAR>
-6.84436

>  <SCORE.SYSTEM.REPUL>
0.0340601

>  <SCORE.SYSTEM.VDW>
-7.24197

>  <SCORE.SYSTEM.norm>
-1.29088

>  <SCORE.heavy>
21

>  <SCORE.norm>
-2.93343

$$$$
SIA.pdb
  rDOCK(R)          3D
libRbt.so/2013.1/901 2013/11/27
 28 28  0  0  0  0  0  0  0  0999 V2000
   -1.8050   59.6374   -5.2437 C   0  0  0  0  0  0
   -3.0245   59.4644   -6.1526 C   0  0  0  0  0  0
   -3.7862   60.5609   -6.8863 C   0  0  0  0  0  0
   -4.5276   60.0474   -8.1111 C   0  0  0  0  0  0
   -4.8458   58.5579   -8.0140 C   0  0  0  0  0  0
   -3.5291   57.7800   -7.9224 C   0  0  0  0  0  0
   -3.7730   56.2764   -7.6955 C   0  0  0  0  0  0
   -2.4785   55.4626   -7.7468 C   0  0  0  0  0  0
   -1.2415   56.1254   -7.0920 C   0  0  0  0  0  0
   -6.5507   57.4197   -9.4777 C   0  0  0  0  0  0
   -7.0803   57.3852  -10.9016 C   0  0  0  0  0  0
   -5.5526   58.2491   -9.2439 N   0  0  0  0  0  0
   -1.1101   58.6050   -5.2066 O   0  0  0  0  0  0
   -1.4433   60.5457   -4.4728 O   0  0  0  0  0  0
   -3.6386   58.6507   -5.1505 O   0  0  0  0  0  0
   -5.7501   60.7441   -8.1764 O   0  0  0  0  0  0
   -2.7564   58.2046   -6.7803 O   0  0  0  0  0  0
   -4.3453   56.0270   -6.4216 O   0  0  0  0  0  0
   -2.7622   54.3068   -6.9910 O   0  0  0  0  0  0
   -1.2298   55.9088   -5.6894 O   0  0  0  0  0  0
   -6.9801   56.7058   -8.5699 O   0  0  0  0  0  0
   -5.2106   58.8399   -9.9580 H   0  0  0  0  0  0
   -4.4147   59.1792   -4.8817 H   0  0  0  0  0  0
   -5.8289   61.2479   -7.3419 H   0  0  0  0  0  0
   -5.2030   56.2865   -6.8237 H   0  0  0  0  0  0
   -3.0366   53.6585   -7.6541 H   0  0  0  0  0  0
   -0.4103   56.3900   -5.4626 H   0  0  0  0  0  0
   -0.5432   60.8048   -4.4438 H   0  0  0  0  0  0
  1 13  2  0  0  0
  1 14  1  0  0  0
  2  1  1  0  0  0
  2  3  1  0  0  0
  2 15  1  0  0  0
  2 17  1  0  0  0
  3  4  1  0  0  0
  4  5  1  0  0  0
  4 16  1  0  0  0
  5  6  1  0  0  0
  5 12  1  0  0  0
  6  7  1  0  0  0
  6 17  1  0  0  0
  7  8  1  0  0  0
  7 18  1  0  0  0
  8  9  1  0  0  0
  8 19  1  0  0  0
  9 20  1  0  0  0
 10 11  1  0  0  0
 10 12  1  0  0  0
 10 21  2  0  0  0
 12 22  1  0  0  0
 14 28  1  0  0  0
 15 23  1  0  0  0
 16 24  1  0  0  0
 18 25  1  0  0  0
 19 26  1  0  0  0
 20 27  1  0  0  0
M  END
>  <CHROM.0>
-46.60350873,-28.77366444,55.16213286,158.02090957,137.60800034,155.14312014
-36.42229027,129.85192339,-156.88945921,31.54029783

>  <CHROM.1>
-138.42366603,-154.25612647,114.94374156,-8.82992651,-144.15024002,174.04157234
39.03275587,80.24413184,83.11376197,94.89214601,-179.54812614,-3.70506118
57.91374835,-7.17980447,0.23430645,-0.66663463,0.24009610

>  <FORMUL>
      SIA    C11 H19 N1 O9

>  <HET>
 SIA  A 467      39

>  <HETNAM>
     SIA O-SIALIC ACID

>  <Name>
SIA.pdb

>  <RI>
0

>  <Rbt.Current_Directory>
/home/malgorzata/Desktop/rDOCK_IFD/Wyniki/12a_neuraminidase

>  <Rbt.Executable>
rbdock ($Id: //depot/dev/client3/rdock/2013.1/src/exe/rbdock.cxx#4 $)

>  <Rbt.Library>
libRbt.so (2013.1, Build901 2013/11/27)

>  <Rbt.Parameter_File>
/home/malgorzata/Desktop/rDock_2013.1_src/data/scripts/soft_docking.prm

>  <Rbt.Receptor>
cavity.prm

>  <SCORE>
-56.916

>  <SCORE.INTER>
-34.6074

>  <SCORE.INTER.CONST>
1

>  <SCORE.INTER.POLAR>
-8.44637

>  <SCORE.INTER.REPUL>
0.969356

>  <SCORE.INTER.ROT>
5

>  <SCORE.INTER.VDW>
-21.1365

>  <SCORE.INTER.norm>
-1.64797

>  <SCORE.INTRA>
4.0304

>  <SCORE.INTRA.DIHEDRAL>
11.9829

>  <SCORE.INTRA.DIHEDRAL.0>
24.6845

>  <SCORE.INTRA.POLAR>
0.930961

>  <SCORE.INTRA.POLAR.0>
-0.967721

>  <SCORE.INTRA.REPUL>
0

>  <SCORE.INTRA.REPUL.0>
0

>  <SCORE.INTRA.VDW>
-1.53144

>  <SCORE.INTRA.VDW.0>
7.44847

>  <SCORE.INTRA.norm>
0.191924

>  <SCORE.RESTR>
0

>  <SCORE.RESTR.CAVITY>
0

>  <SCORE.RESTR.norm>
0

>  <SCORE.SYSTEM>
-26.339

>  <SCORE.SYSTEM.CONST>
0

>  <SCORE.SYSTEM.DIHEDRAL>
7.8704

>  <SCORE.SYSTEM.POLAR>
-7.25214

>  <SCORE.SYSTEM.REPUL>
0.109159

>  <SCORE.SYSTEM.VDW>
-6.16275

>  <SCORE.SYSTEM.norm>
-1.25424

>  <SCORE.heavy>
21

>  <SCORE.norm>
-2.71029

$$$$
SIA.pdb
  rDOCK(R)          3D
libRbt.so/2013.1/901 2013/11/27
 28 28  0  0  0  0  0  0  0  0999 V2000
   -2.1227   58.4369   -5.1955 C   0  0  0  0  0  0
   -1.9127   57.0871   -5.8863 C   0  0  0  0  0  0
   -2.9720   56.2275   -6.5641 C   0  0  0  0  0  0
   -2.3923   55.2966   -7.6182 C   0  0  0  0  0  0
   -0.9188   54.9858   -7.3697 C   0  0  0  0  0  0
   -0.1240   56.2939   -7.4341 C   0  0  0  0  0  0
    1.3563   56.0770   -7.0685 C   0  0  0  0  0  0
    2.3014   56.4889   -8.1989 C   0  0  0  0  0  0
    3.8117   56.4544   -7.8584 C   0  0  0  0  0  0
   -0.3651   54.3193   -9.7349 C   0  0  0  0  0  0
    0.0801   53.1349  -10.5765 C   0  0  0  0  0  0
   -0.5423   54.0900   -8.4484 N   0  0  0  0  0  0
   -3.3320   58.6982   -5.0566 O   0  0  0  0  0  0
   -1.3431   59.3457   -4.8541 O   0  0  0  0  0  0
   -1.1794   56.6334   -4.7461 O   0  0  0  0  0  0
   -3.1061   54.0851   -7.5373 O   0  0  0  0  0  0
   -0.6089   57.2417   -6.4603 O   0  0  0  0  0  0
    1.7332   56.8478   -5.9388 O   0  0  0  0  0  0
    2.0929   55.5183   -9.1999 O   0  0  0  0  0  0
    4.0953   55.4460   -6.9008 O   0  0  0  0  0  0
   -0.5904   55.4400  -10.1946 O   0  0  0  0  0  0
   -0.3484   53.2011   -8.0636 H   0  0  0  0  0  0
   -0.3075   57.0585   -4.8607 H   0  0  0  0  0  0
   -2.8188   53.5409   -8.2974 H   0  0  0  0  0  0
    2.3635   56.1237   -5.7312 H   0  0  0  0  0  0
    1.7956   56.0331   -9.9628 H   0  0  0  0  0  0
    4.2573   56.0111   -6.1204 H   0  0  0  0  0  0
   -0.5480   59.4844   -5.3301 H   0  0  0  0  0  0
  1 13  2  0  0  0
  1 14  1  0  0  0
  2  1  1  0  0  0
  2  3  1  0  0  0
  2 15  1  0  0  0
  2 17  1  0  0  0
  3  4  1  0  0  0
  4  5  1  0  0  0
  4 16  1  0  0  0
  5  6  1  0  0  0
  5 12  1  0  0  0
  6  7  1  0  0  0
  6 17  1  0  0  0
  7  8  1  0  0  0
  7 18  1  0  0  0
  8  9  1  0  0  0
  8 19  1  0  0  0
  9 20  1  0  0  0
 10 11  1  0  0  0
 10 12  1  0  0  0
 10 21  2  0  0  0
 12 22  1  0  0  0
 14 28  1  0  0  0
 15 23  1  0  0  0
 16 24  1  0  0  0
 18 25  1  0  0  0
 19 26  1  0  0  0
 20 27  1  0  0  0
M  END
>  <CHROM.0>
-162.18359185,160.40610813,-168.51157971,60.53529171,-98.66358842,-55.46876156
-73.10148265,148.78214031,-178.80024007,10.98757479

>  <CHROM.1>
28.70386818,10.26216965,-77.78067037,172.02234687,71.62546410,120.88057303
173.37536212,148.75830245,30.79596131,120.46590816,-106.82042119,-0.24559476
56.11075496,-7.25341560,-2.31812019,-0.08590134,-2.32645617

>  <FORMUL>
      SIA    C11 H19 N1 O9

>  <HET>
 SIA  A 467      39

>  <HETNAM>
     SIA O-SIALIC ACID

>  <Name>
SIA.pdb

>  <RI>
0

>  <Rbt.Current_Directory>
/home/malgorzata/Desktop/rDOCK_IFD/Wyniki/12a_neuraminidase

>  <Rbt.Executable>
rbdock ($Id: //depot/dev/client3/rdock/2013.1/src/exe/rbdock.cxx#4 $)

>  <Rbt.Library>
libRbt.so (2013.1, Build901 2013/11/27)

>  <Rbt.Parameter_File>
/home/malgorzata/Desktop/rDock_2013.1_src/data/scripts/soft_docking.prm

>  <Rbt.Receptor>
cavity.prm

>  <SCORE>
-55.3895

>  <SCORE.INTER>
-27.1603

>  <SCORE.INTER.CONST>
1

>  <SCORE.INTER.POLAR>
-8.28689

>  <SCORE.INTER.REPUL>
3.08624

>  <SCORE.INTER.ROT>
5

>  <SCORE.INTER.VDW>
-24.8161

>  <SCORE.INTER.norm>
-1.29335

>  <SCORE.INTRA>
-3.31741

>  <SCORE.INTRA.DIHEDRAL>
12.979

>  <SCORE.INTRA.DIHEDRAL.0>
24.6845

>  <SCORE.INTRA.POLAR>
0.967721

>  <SCORE.INTRA.POLAR.0>
-0.967721

>  <SCORE.INTRA.REPUL>
0

>  <SCORE.INTRA.REPUL.0>
0

>  <SCORE.INTRA.VDW>
-9.20347

>  <SCORE.INTRA.VDW.0>
7.44847

>  <SCORE.INTRA.norm>
-0.157972

>  <SCORE.RESTR>
0.800624

>  <SCORE.RESTR.CAVITY>
0.160125

>  <SCORE.RESTR.norm>
0.038125

>  <SCORE.SYSTEM>
-25.7124

>  <SCORE.SYSTEM.CONST>
0

>  <SCORE.SYSTEM.DIHEDRAL>
6.21511

>  <SCORE.SYSTEM.POLAR>
-6.68545

>  <SCORE.SYSTEM.REPUL>
0.0340601

>  <SCORE.SYSTEM.VDW>
-6.25976

>  <SCORE.SYSTEM.norm>
-1.2244

>  <SCORE.heavy>
21

>  <SCORE.norm>
-2.6376

$$$$
