SIA.pdb
  rDOCK(R)          3D
libRbt.so/2013.1/901 2013/11/27
 28 28  0  0  0  0  0  0  0  0999 V2000
   -0.1941   58.4655   -6.4079 C   0  0  0  0  0  0
   -1.1717   57.3325   -6.7302 C   0  0  0  0  0  0
   -2.6934   57.4029   -6.7246 C   0  0  0  0  0  0
   -3.3369   56.3531   -7.6175 C   0  0  0  0  0  0
   -2.4329   55.1425   -7.8332 C   0  0  0  0  0  0
   -1.1503   55.6063   -8.5312 C   0  0  0  0  0  0
   -0.1332   54.4583   -8.6704 C   0  0  0  0  0  0
   -0.6035   53.3793   -9.6477 C   0  0  0  0  0  0
   -0.1600   53.5661  -11.1196 C   0  0  0  0  0  0
   -3.9640   54.5097   -9.7306 C   0  0  0  0  0  0
   -4.5896   53.3088  -10.4203 C   0  0  0  0  0  0
   -3.2014   54.2535   -8.6857 N   0  0  0  0  0  0
   -0.7903   59.5322   -6.1694 O   0  0  0  0  0  0
    1.0475   58.5507   -6.4434 O   0  0  0  0  0  0
   -0.4460   56.4740   -5.8470 O   0  0  0  0  0  0
   -4.5004   55.9082   -6.9600 O   0  0  0  0  0  0
   -0.4696   56.6090   -7.7483 O   0  0  0  0  0  0
    1.1129   54.9223   -9.1651 O   0  0  0  0  0  0
    0.0148   52.1984   -9.1886 O   0  0  0  0  0  0
    1.2331   53.3371  -11.2651 O   0  0  0  0  0  0
   -4.1586   55.6762  -10.0763 O   0  0  0  0  0  0
   -3.0228   53.3223   -8.4085 H   0  0  0  0  0  0
   -0.6789   56.8184   -4.9632 H   0  0  0  0  0  0
   -4.2026   55.3680   -6.2011 H   0  0  0  0  0  0
    1.3818   55.0166   -8.2252 H   0  0  0  0  0  0
   -0.4159   52.0268   -8.3399 H   0  0  0  0  0  0
    1.2414   52.3631  -11.1892 H   0  0  0  0  0  0
    1.5749   57.8254   -6.1717 H   0  0  0  0  0  0
  1 13  2  0  0  0
  1 14  1  0  0  0
  2  1  1  0  0  0
  2  3  1  0  0  0
  2 15  1  0  0  0
  2 17  1  0  0  0
  3  4  1  0  0  0
  4  5  1  0  0  0
  4 16  1  0  0  0
  5  6  1  0  0  0
  5 12  1  0  0  0
  6  7  1  0  0  0
  6 17  1  0  0  0
  7  8  1  0  0  0
  7 18  1  0  0  0
  8  9  1  0  0  0
  8 19  1  0  0  0
  9 20  1  0  0  0
 10 11  1  0  0  0
 10 12  1  0  0  0
 10 21  2  0  0  0
 12 22  1  0  0  0
 14 28  1  0  0  0
 15 23  1  0  0  0
 16 24  1  0  0  0
 18 25  1  0  0  0
 19 26  1  0  0  0
 20 27  1  0  0  0
M  END
>  <CHROM.0>
66.15181247,153.04114125,-11.20210022,47.00751525,-68.00197220,141.26120222
-37.76776307,126.05056086,-75.80239876,115.62220470

>  <CHROM.1>
-38.90183152,-2.43993077,72.24459487,-71.75163420,41.22630435,68.14793961
91.37615542,92.80814334,70.67279459,67.64957906,74.27476114,-1.40012932,55.54876852
-8.32174179,-1.47685884,-0.01632223,-2.45330238

>  <FORMUL>
      SIA    C11 H19 N1 O9

>  <HET>
 SIA  A 467      39

>  <HETNAM>
     SIA O-SIALIC ACID

>  <Name>
SIA.pdb

>  <RI>
0

>  <Rbt.Current_Directory>
/home/malgorzata/Desktop/rDOCK_IFD/test12

>  <Rbt.Executable>
rbdock ($Id: //depot/dev/client3/rdock/2013.1/src/exe/rbdock.cxx#4 $)

>  <Rbt.Library>
libRbt.so (2013.1, Build901 2013/11/27)

>  <Rbt.Parameter_File>
/home/malgorzata/Desktop/rDock_2013.1_src/data/scripts/soft_docking.prm

>  <Rbt.Receptor>
cavity.prm

>  <SCORE>
-58.7253

>  <SCORE.INTER>
-35.0366

>  <SCORE.INTER.CONST>
1

>  <SCORE.INTER.POLAR>
-7.68504

>  <SCORE.INTER.REPUL>
0.876897

>  <SCORE.INTER.ROT>
5

>  <SCORE.INTER.VDW>
-23.692

>  <SCORE.INTER.norm>
-1.66841

>  <SCORE.INTRA>
-4.91887

>  <SCORE.INTRA.DIHEDRAL>
-5.31059

>  <SCORE.INTRA.DIHEDRAL.0>
24.6845

>  <SCORE.INTRA.POLAR>
0.967721

>  <SCORE.INTRA.POLAR.0>
-0.967721

>  <SCORE.INTRA.REPUL>
0

>  <SCORE.INTRA.REPUL.0>
0

>  <SCORE.INTRA.VDW>
-7.147

>  <SCORE.INTRA.VDW.0>
7.44847

>  <SCORE.INTRA.norm>
-0.234232

>  <SCORE.RESTR>
0

>  <SCORE.RESTR.CAVITY>
0

>  <SCORE.RESTR.norm>
0

>  <SCORE.SYSTEM>
-18.7698

>  <SCORE.SYSTEM.CONST>
0

>  <SCORE.SYSTEM.DIHEDRAL>
16.7721

>  <SCORE.SYSTEM.POLAR>
-6.88264

>  <SCORE.SYSTEM.REPUL>
0.250958

>  <SCORE.SYSTEM.VDW>
-5.0096

>  <SCORE.SYSTEM.norm>
-0.893798

>  <SCORE.heavy>
21

>  <SCORE.norm>
-2.79644

$$$$
SIA.pdb
  rDOCK(R)          3D
libRbt.so/2013.1/901 2013/11/27
 28 28  0  0  0  0  0  0  0  0999 V2000
   -1.2776   57.8430   -5.2813 C   0  0  0  0  0  0
   -2.1848   58.7048   -6.1630 C   0  0  0  0  0  0
   -1.7760   59.9098   -7.0006 C   0  0  0  0  0  0
   -2.7208   60.1688   -8.1641 C   0  0  0  0  0  0
   -4.1157   59.6014   -7.9156 C   0  0  0  0  0  0
   -4.0050   58.0821   -7.7515 C   0  0  0  0  0  0
   -5.3585   57.4524   -7.3727 C   0  0  0  0  0  0
   -6.0805   56.8537   -8.5814 C   0  0  0  0  0  0
   -5.7856   55.3609   -8.8689 C   0  0  0  0  0  0
   -5.6789   60.9616   -9.3477 C   0  0  0  0  0  0
   -6.2752   61.0314  -10.7437 C   0  0  0  0  0  0
   -4.8732   59.9462   -9.1051 N   0  0  0  0  0  0
   -0.0882   57.9093   -5.6434 O   0  0  0  0  0  0
   -1.5072   57.0286   -4.3679 O   0  0  0  0  0  0
   -3.1134   58.8093   -5.0812 O   0  0  0  0  0  0
   -2.8427   61.5660   -8.2944 O   0  0  0  0  0  0
   -3.1228   57.7430   -6.6613 O   0  0  0  0  0  0
   -5.1989   56.3920   -6.4438 O   0  0  0  0  0  0
   -7.4478   56.9362   -8.2479 O   0  0  0  0  0  0
   -6.5180   54.9045   -9.9957 O   0  0  0  0  0  0
   -5.9331   61.7698   -8.4532 O   0  0  0  0  0  0
   -4.6468   59.3010   -9.8182 H   0  0  0  0  0  0
   -3.9152   59.1640   -5.5117 H   0  0  0  0  0  0
   -2.1631   61.9607   -7.7124 H   0  0  0  0  0  0
   -5.2148   57.0825   -5.7456 H   0  0  0  0  0  0
   -7.7612   57.7039   -8.7456 H   0  0  0  0  0  0
   -7.3746   54.7211   -9.5630 H   0  0  0  0  0  0
   -0.8783   56.9007   -3.6851 H   0  0  0  0  0  0
  1 13  2  0  0  0
  1 14  1  0  0  0
  2  1  1  0  0  0
  2  3  1  0  0  0
  2 15  1  0  0  0
  2 17  1  0  0  0
  3  4  1  0  0  0
  4  5  1  0  0  0
  4 16  1  0  0  0
  5  6  1  0  0  0
  5 12  1  0  0  0
  6  7  1  0  0  0
  6 17  1  0  0  0
  7  8  1  0  0  0
  7 18  1  0  0  0
  8  9  1  0  0  0
  8 19  1  0  0  0
  9 20  1  0  0  0
 10 11  1  0  0  0
 10 12  1  0  0  0
 10 21  2  0  0  0
 12 22  1  0  0  0
 14 28  1  0  0  0
 15 23  1  0  0  0
 16 24  1  0  0  0
 18 25  1  0  0  0
 19 26  1  0  0  0
 20 27  1  0  0  0
M  END
>  <CHROM.0>
45.68934810,64.34367406,61.97706431,178.72290252,-101.82964621,132.02526737
-114.94035785,80.80832327,18.44141407,80.99678318

>  <CHROM.1>
-150.85734223,-23.37910743,-166.48165109,10.18512160,-95.93362262,98.63720381
91.10865703,85.31634685,179.19975724,101.63185659,-82.13398691,-4.11634573
58.48706257,-7.57105999,0.17076037,0.63600059,2.80785488

>  <FORMUL>
      SIA    C11 H19 N1 O9

>  <HET>
 SIA  A 467      39

>  <HETNAM>
     SIA O-SIALIC ACID

>  <Name>
SIA.pdb

>  <RI>
0

>  <Rbt.Current_Directory>
/home/malgorzata/Desktop/rDOCK_IFD/test12

>  <Rbt.Executable>
rbdock ($Id: //depot/dev/client3/rdock/2013.1/src/exe/rbdock.cxx#4 $)

>  <Rbt.Library>
libRbt.so (2013.1, Build901 2013/11/27)

>  <Rbt.Parameter_File>
/home/malgorzata/Desktop/rDock_2013.1_src/data/scripts/soft_docking.prm

>  <Rbt.Receptor>
cavity.prm

>  <SCORE>
-58.8451

>  <SCORE.INTER>
-33.2732

>  <SCORE.INTER.CONST>
1

>  <SCORE.INTER.POLAR>
-9.37935

>  <SCORE.INTER.REPUL>
0.669661

>  <SCORE.INTER.ROT>
5

>  <SCORE.INTER.VDW>
-15.1317

>  <SCORE.INTER.norm>
-1.58444

>  <SCORE.INTRA>
-0.73324

>  <SCORE.INTRA.DIHEDRAL>
8.58784

>  <SCORE.INTRA.DIHEDRAL.0>
24.6845

>  <SCORE.INTRA.POLAR>
0.967721

>  <SCORE.INTRA.POLAR.0>
-0.967721

>  <SCORE.INTRA.REPUL>
0

>  <SCORE.INTRA.REPUL.0>
0

>  <SCORE.INTRA.VDW>
-5.74106

>  <SCORE.INTRA.VDW.0>
7.44847

>  <SCORE.INTRA.norm>
-0.0349162

>  <SCORE.RESTR>
0.016969

>  <SCORE.RESTR.CAVITY>
0.016969

>  <SCORE.RESTR.norm>
0.000808047

>  <SCORE.SYSTEM>
-24.8556

>  <SCORE.SYSTEM.CONST>
0

>  <SCORE.SYSTEM.DIHEDRAL>
3.86087

>  <SCORE.SYSTEM.POLAR>
-6.29719

>  <SCORE.SYSTEM.REPUL>
0.166535

>  <SCORE.SYSTEM.VDW>
-6.20825

>  <SCORE.SYSTEM.norm>
-1.1836

>  <SCORE.heavy>
21

>  <SCORE.norm>
-2.80215

$$$$
SIA.pdb
  rDOCK(R)          3D
libRbt.so/2013.1/901 2013/11/27
 28 28  0  0  0  0  0  0  0  0999 V2000
   -6.0472   58.0989   -7.9783 C   0  0  0  0  0  0
   -4.6425   57.5094   -7.8268 C   0  0  0  0  0  0
   -3.9003   56.6349   -8.8292 C   0  0  0  0  0  0
   -2.3894   56.7033   -8.6684 C   0  0  0  0  0  0
   -1.9745   57.1093   -7.2568 C   0  0  0  0  0  0
   -2.5247   58.5096   -6.9676 C   0  0  0  0  0  0
   -2.2522   58.9370   -5.5133 C   0  0  0  0  0  0
   -2.8386   60.3129   -5.1914 C   0  0  0  0  0  0
   -2.8848   61.3163   -6.3700 C   0  0  0  0  0  0
    0.3498   56.3196   -6.6922 C   0  0  0  0  0  0
    1.8158   56.5917   -6.9861 C   0  0  0  0  0  0
   -0.5229   57.1117   -7.2837 N   0  0  0  0  0  0
   -6.8316   57.2866   -8.5026 O   0  0  0  0  0  0
   -6.5156   59.2360   -7.7843 O   0  0  0  0  0  0
   -4.9948   57.0417   -6.5227 O   0  0  0  0  0  0
   -1.8892   55.4084   -8.9070 O   0  0  0  0  0  0
   -3.9614   58.5372   -7.0968 O   0  0  0  0  0  0
   -2.8336   58.0339   -4.5863 O   0  0  0  0  0  0
   -4.1770   60.0480   -4.8365 O   0  0  0  0  0  0
   -3.6586   62.4585   -6.0369 O   0  0  0  0  0  0
   -0.0428   55.4390   -5.9251 O   0  0  0  0  0  0
   -0.2229   57.8101   -7.9147 H   0  0  0  0  0  0
   -4.6231   56.1387   -6.5040 H   0  0  0  0  0  0
   -2.6465   54.7960   -8.8171 H   0  0  0  0  0  0
   -1.9375   57.6413   -4.4997 H   0  0  0  0  0  0
   -4.4022   59.2623   -5.3534 H   0  0  0  0  0  0
   -3.1901   62.7349   -5.2253 H   0  0  0  0  0  0
   -7.4419   59.3540   -7.7057 H   0  0  0  0  0  0
  1 13  2  0  0  0
  1 14  1  0  0  0
  2  1  1  0  0  0
  2  3  1  0  0  0
  2 15  1  0  0  0
  2 17  1  0  0  0
  3  4  1  0  0  0
  4  5  1  0  0  0
  4 16  1  0  0  0
  5  6  1  0  0  0
  5 12  1  0  0  0
  6  7  1  0  0  0
  6 17  1  0  0  0
  7  8  1  0  0  0
  7 18  1  0  0  0
  8  9  1  0  0  0
  8 19  1  0  0  0
  9 20  1  0  0  0
 10 11  1  0  0  0
 10 12  1  0  0  0
 10 21  2  0  0  0
 12 22  1  0  0  0
 14 28  1  0  0  0
 15 23  1  0  0  0
 16 24  1  0  0  0
 18 25  1  0  0  0
 19 26  1  0  0  0
 20 27  1  0  0  0
M  END
>  <CHROM.0>
-149.82899624,-163.77678555,145.23328542,87.36056577,27.77267716,-158.66907291
35.24893466,112.00061930,-177.00413452,120.05915917

>  <CHROM.1>
-163.11058145,40.14041471,136.73541969,-18.03700234,-111.49669637,-177.95577666
-31.64137636,99.70935549,169.32940971,-30.18109632,55.53924728,-3.03441904
58.04821532,-6.91101388,2.63922299,-0.29348018,0.54661445

>  <FORMUL>
      SIA    C11 H19 N1 O9

>  <HET>
 SIA  A 467      39

>  <HETNAM>
     SIA O-SIALIC ACID

>  <Name>
SIA.pdb

>  <RI>
0

>  <Rbt.Current_Directory>
/home/malgorzata/Desktop/rDOCK_IFD/test12

>  <Rbt.Executable>
rbdock ($Id: //depot/dev/client3/rdock/2013.1/src/exe/rbdock.cxx#4 $)

>  <Rbt.Library>
libRbt.so (2013.1, Build901 2013/11/27)

>  <Rbt.Parameter_File>
/home/malgorzata/Desktop/rDock_2013.1_src/data/scripts/soft_docking.prm

>  <Rbt.Receptor>
cavity.prm

>  <SCORE>
-53.5286

>  <SCORE.INTER>
-30.5392

>  <SCORE.INTER.CONST>
1

>  <SCORE.INTER.POLAR>
-8.05468

>  <SCORE.INTER.REPUL>
1.00926

>  <SCORE.INTER.ROT>
5

>  <SCORE.INTER.VDW>
-18.5996

>  <SCORE.INTER.norm>
-1.45425

>  <SCORE.INTRA>
-1.88965

>  <SCORE.INTRA.DIHEDRAL>
5.56178

>  <SCORE.INTRA.DIHEDRAL.0>
24.6845

>  <SCORE.INTRA.POLAR>
0.227366

>  <SCORE.INTRA.POLAR.0>
-0.967721

>  <SCORE.INTRA.REPUL>
0

>  <SCORE.INTRA.REPUL.0>
0

>  <SCORE.INTRA.VDW>
-3.77505

>  <SCORE.INTRA.VDW.0>
7.44847

>  <SCORE.INTRA.norm>
-0.0899834

>  <SCORE.RESTR>
0

>  <SCORE.RESTR.CAVITY>
0

>  <SCORE.RESTR.norm>
0

>  <SCORE.SYSTEM>
-21.0997

>  <SCORE.SYSTEM.CONST>
0

>  <SCORE.SYSTEM.DIHEDRAL>
11.742

>  <SCORE.SYSTEM.POLAR>
-6.5437

>  <SCORE.SYSTEM.REPUL>
0.563531

>  <SCORE.SYSTEM.VDW>
-7.53981

>  <SCORE.SYSTEM.norm>
-1.00475

>  <SCORE.heavy>
21

>  <SCORE.norm>
-2.54898

$$$$
SIA.pdb
  rDOCK(R)          3D
libRbt.so/2013.1/901 2013/11/27
 28 28  0  0  0  0  0  0  0  0999 V2000
   -3.2090   57.8794   -5.6736 C   0  0  0  0  0  0
   -1.8057   57.3291   -5.9406 C   0  0  0  0  0  0
   -1.4424   56.0993   -6.7629 C   0  0  0  0  0  0
   -0.0248   56.1528   -7.3117 C   0  0  0  0  0  0
    0.8842   57.0556   -6.4821 C   0  0  0  0  0  0
    0.3282   58.4826   -6.5235 C   0  0  0  0  0  0
    1.1242   59.4284   -5.6049 C   0  0  0  0  0  0
    1.5308   60.7220   -6.3134 C   0  0  0  0  0  0
    0.3828   61.5009   -7.0015 C   0  0  0  0  0  0
    3.1825   56.1415   -6.9586 C   0  0  0  0  0  0
    4.3870   56.3317   -7.8655 C   0  0  0  0  0  0
    2.1786   56.9782   -7.1349 N   0  0  0  0  0  0
   -3.9971   57.5930   -6.5940 O   0  0  0  0  0  0
   -3.6738   58.6277   -4.7937 O   0  0  0  0  0  0
   -1.5184   57.4227   -4.5434 O   0  0  0  0  0  0
    0.4935   54.8448   -7.2459 O   0  0  0  0  0  0
   -1.0218   58.5262   -6.0164 O   0  0  0  0  0  0
    0.3626   59.8208   -4.4741 O   0  0  0  0  0  0
    2.0145   61.5495   -5.2795 O   0  0  0  0  0  0
    0.6327   61.6559   -8.3900 O   0  0  0  0  0  0
    3.1198   55.2865   -6.0737 O   0  0  0  0  0  0
    2.2084   57.6569   -7.8521 H   0  0  0  0  0  0
   -0.5420   57.4261   -4.5183 H   0  0  0  0  0  0
    1.0849   54.7401   -8.0178 H   0  0  0  0  0  0
    1.2004   60.1834   -4.1118 H   0  0  0  0  0  0
    2.9666   61.5922   -5.4438 H   0  0  0  0  0  0
    0.6863   60.7147   -8.6464 H   0  0  0  0  0  0
   -4.2791   59.3042   -5.0258 H   0  0  0  0  0  0
  1 13  2  0  0  0
  1 14  1  0  0  0
  2  1  1  0  0  0
  2  3  1  0  0  0
  2 15  1  0  0  0
  2 17  1  0  0  0
  3  4  1  0  0  0
  4  5  1  0  0  0
  4 16  1  0  0  0
  5  6  1  0  0  0
  5 12  1  0  0  0
  6  7  1  0  0  0
  6 17  1  0  0  0
  7  8  1  0  0  0
  7 18  1  0  0  0
  8  9  1  0  0  0
  8 19  1  0  0  0
  9 20  1  0  0  0
 10 11  1  0  0  0
 10 12  1  0  0  0
 10 21  2  0  0  0
 12 22  1  0  0  0
 14 28  1  0  0  0
 15 23  1  0  0  0
 16 24  1  0  0  0
 18 25  1  0  0  0
 19 26  1  0  0  0
 20 27  1  0  0  0
M  END
>  <CHROM.0>
-52.13817234,-163.29245624,63.23818171,-68.80159309,-61.18785937,-87.80739727
79.73018199,-55.91750509,-155.99584285,-55.10134655

>  <CHROM.1>
137.56885615,-27.78675025,-159.59419151,146.13854295,-88.77510487,130.94721245
52.74334765,168.76089268,-121.25830390,109.78249966,59.57418160,0.17970118
58.11023972,-6.31323605,2.79997511,0.21055892,0.09809985

>  <FORMUL>
      SIA    C11 H19 N1 O9

>  <HET>
 SIA  A 467      39

>  <HETNAM>
     SIA O-SIALIC ACID

>  <Name>
SIA.pdb

>  <RI>
0

>  <Rbt.Current_Directory>
/home/malgorzata/Desktop/rDOCK_IFD/test12

>  <Rbt.Executable>
rbdock ($Id: //depot/dev/client3/rdock/2013.1/src/exe/rbdock.cxx#4 $)

>  <Rbt.Library>
libRbt.so (2013.1, Build901 2013/11/27)

>  <Rbt.Parameter_File>
/home/malgorzata/Desktop/rDock_2013.1_src/data/scripts/soft_docking.prm

>  <Rbt.Receptor>
cavity.prm

>  <SCORE>
-63.0049

>  <SCORE.INTER>
-35.1975

>  <SCORE.INTER.CONST>
1

>  <SCORE.INTER.POLAR>
-8.21482

>  <SCORE.INTER.REPUL>
0.868872

>  <SCORE.INTER.ROT>
5

>  <SCORE.INTER.VDW>
-22.0114

>  <SCORE.INTER.norm>
-1.67607

>  <SCORE.INTRA>
-2.17359

>  <SCORE.INTRA.DIHEDRAL>
9.47123

>  <SCORE.INTRA.DIHEDRAL.0>
24.6845

>  <SCORE.INTRA.POLAR>
0.967721

>  <SCORE.INTRA.POLAR.0>
-0.967721

>  <SCORE.INTRA.REPUL>
0

>  <SCORE.INTRA.REPUL.0>
0

>  <SCORE.INTRA.VDW>
-7.35809

>  <SCORE.INTRA.VDW.0>
7.44847

>  <SCORE.INTRA.norm>
-0.103504

>  <SCORE.RESTR>
0.509843

>  <SCORE.RESTR.CAVITY>
0.509843

>  <SCORE.RESTR.norm>
0.0242782

>  <SCORE.SYSTEM>
-26.1437

>  <SCORE.SYSTEM.CONST>
0

>  <SCORE.SYSTEM.DIHEDRAL>
4.74112

>  <SCORE.SYSTEM.POLAR>
-7.08927

>  <SCORE.SYSTEM.REPUL>
0.477104

>  <SCORE.SYSTEM.VDW>
-6.79622

>  <SCORE.SYSTEM.norm>
-1.24494

>  <SCORE.heavy>
21

>  <SCORE.norm>
-3.00023

$$$$
SIA.pdb
  rDOCK(R)          3D
libRbt.so/2013.1/901 2013/11/27
 28 28  0  0  0  0  0  0  0  0999 V2000
   -1.9978   57.8166   -5.2350 C   0  0  0  0  0  0
   -1.5805   56.7049   -6.2011 C   0  0  0  0  0  0
   -2.4718   55.9656   -7.1909 C   0  0  0  0  0  0
   -1.6963   55.3780   -8.3600 C   0  0  0  0  0  0
   -0.2304   55.1282   -8.0162 C   0  0  0  0  0  0
    0.4259   56.4671   -7.6645 C   0  0  0  0  0  0
    1.8771   56.2789   -7.1846 C   0  0  0  0  0  0
    2.8931   56.8993   -8.1455 C   0  0  0  0  0  0
    3.6215   58.1644   -7.6287 C   0  0  0  0  0  0
    1.0675   53.4788   -9.4089 C   0  0  0  0  0  0
    1.4636   53.1659  -10.8423 C   0  0  0  0  0  0
    0.3428   54.5650   -9.2254 N   0  0  0  0  0  0
   -1.7419   58.9447   -5.6955 O   0  0  0  0  0  0
   -2.4308   57.8081   -4.0677 O   0  0  0  0  0  0
   -0.9206   56.0358   -5.1239 O   0  0  0  0  0  0
   -2.2842   54.1342   -8.6625 O   0  0  0  0  0  0
   -0.2496   57.0987   -6.5570 O   0  0  0  0  0  0
    2.0952   56.8978   -5.9267 O   0  0  0  0  0  0
    3.8791   55.9039   -8.3022 O   0  0  0  0  0  0
    4.2663   58.8508   -8.6905 O   0  0  0  0  0  0
    1.4104   52.7995   -8.4398 O   0  0  0  0  0  0
    0.0461   55.1088   -9.9949 H   0  0  0  0  0  0
   -0.0041   56.3676   -5.1860 H   0  0  0  0  0  0
   -1.5605   53.4764   -8.6626 H   0  0  0  0  0  0
    2.1186   55.9900   -5.5526 H   0  0  0  0  0  0
    4.1357   55.9769   -9.2318 H   0  0  0  0  0  0
    4.6973   59.5629   -8.1790 H   0  0  0  0  0  0
   -2.3866   57.0235   -3.5573 H   0  0  0  0  0  0
  1 13  2  0  0  0
  1 14  1  0  0  0
  2  1  1  0  0  0
  2  3  1  0  0  0
  2 15  1  0  0  0
  2 17  1  0  0  0
  3  4  1  0  0  0
  4  5  1  0  0  0
  4 16  1  0  0  0
  5  6  1  0  0  0
  5 12  1  0  0  0
  6  7  1  0  0  0
  6 17  1  0  0  0
  7  8  1  0  0  0
  7 18  1  0  0  0
  8  9  1  0  0  0
  8 19  1  0  0  0
  9 20  1  0  0  0
 10 11  1  0  0  0
 10 12  1  0  0  0
 10 21  2  0  0  0
 12 22  1  0  0  0
 14 28  1  0  0  0
 15 23  1  0  0  0
 16 24  1  0  0  0
 18 25  1  0  0  0
 19 26  1  0  0  0
 20 27  1  0  0  0
M  END
>  <CHROM.0>
176.08054921,-62.24288872,29.37265495,-90.64481125,-67.33664354,71.78688263
-6.93296244,137.76780756,-148.95497867,-38.86882129

>  <CHROM.1>
12.82257679,-97.55205266,-93.02567653,-127.16401516,-129.37703356,114.35450116
109.80191479,107.35899476,-164.92990141,143.00284094,-176.94503790,0.41006602
56.13656681,-7.42779659,-2.50817745,-0.33384878,-2.48389974

>  <FORMUL>
      SIA    C11 H19 N1 O9

>  <HET>
 SIA  A 467      39

>  <HETNAM>
     SIA O-SIALIC ACID

>  <Name>
SIA.pdb

>  <RI>
0

>  <Rbt.Current_Directory>
/home/malgorzata/Desktop/rDOCK_IFD/test12

>  <Rbt.Executable>
rbdock ($Id: //depot/dev/client3/rdock/2013.1/src/exe/rbdock.cxx#4 $)

>  <Rbt.Library>
libRbt.so (2013.1, Build901 2013/11/27)

>  <Rbt.Parameter_File>
/home/malgorzata/Desktop/rDock_2013.1_src/data/scripts/soft_docking.prm

>  <Rbt.Receptor>
cavity.prm

>  <SCORE>
-69.1194

>  <SCORE.INTER>
-40.7461

>  <SCORE.INTER.CONST>
1

>  <SCORE.INTER.POLAR>
-8.35138

>  <SCORE.INTER.REPUL>
0.510003

>  <SCORE.INTER.ROT>
5

>  <SCORE.INTER.VDW>
-25.3014

>  <SCORE.INTER.norm>
-1.94029

>  <SCORE.INTRA>
0.0108734

>  <SCORE.INTRA.DIHEDRAL>
14.6909

>  <SCORE.INTRA.DIHEDRAL.0>
24.6845

>  <SCORE.INTRA.POLAR>
0.967721

>  <SCORE.INTRA.POLAR.0>
-0.967721

>  <SCORE.INTRA.REPUL>
0

>  <SCORE.INTRA.REPUL.0>
0

>  <SCORE.INTRA.VDW>
-6.21755

>  <SCORE.INTRA.VDW.0>
7.44847

>  <SCORE.INTRA.norm>
0.000517782

>  <SCORE.RESTR>
0.140106

>  <SCORE.RESTR.CAVITY>
0.140106

>  <SCORE.RESTR.norm>
0.00667171

>  <SCORE.SYSTEM>
-28.5243

>  <SCORE.SYSTEM.CONST>
0

>  <SCORE.SYSTEM.DIHEDRAL>
7.33499

>  <SCORE.SYSTEM.POLAR>
-7.57135

>  <SCORE.SYSTEM.REPUL>
0.0340601

>  <SCORE.SYSTEM.VDW>
-6.61954

>  <SCORE.SYSTEM.norm>
-1.3583

>  <SCORE.heavy>
21

>  <SCORE.norm>
-3.2914

$$$$
SIA.pdb
  rDOCK(R)          3D
libRbt.so/2013.1/901 2013/11/27
 28 28  0  0  0  0  0  0  0  0999 V2000
   -7.5201   58.5600   -8.5505 C   0  0  0  0  0  0
   -6.9726   57.1323   -8.6228 C   0  0  0  0  0  0
   -7.4413   56.0144   -9.5454 C   0  0  0  0  0  0
   -6.3707   54.9620   -9.7901 C   0  0  0  0  0  0
   -5.3417   54.9092   -8.6641 C   0  0  0  0  0  0
   -4.6336   56.2654   -8.5828 C   0  0  0  0  0  0
   -3.6666   56.3297   -7.3859 C   0  0  0  0  0  0
   -2.2606   56.7713   -7.7967 C   0  0  0  0  0  0
   -1.4070   55.7042   -8.5254 C   0  0  0  0  0  0
   -3.7705   53.6597  -10.1854 C   0  0  0  0  0  0
   -2.8367   52.4615  -10.2262 C   0  0  0  0  0  0
   -4.4189   53.8587   -9.0546 N   0  0  0  0  0  0
   -8.6437   58.6480   -9.0797 O   0  0  0  0  0  0
   -7.0277   59.6395   -8.1733 O   0  0  0  0  0  0
   -7.0721   57.0371   -7.1999 O   0  0  0  0  0  0
   -7.0211   53.7135   -9.8359 O   0  0  0  0  0  0
   -5.5799   57.3293   -8.3496 O   0  0  0  0  0  0
   -4.1039   57.2631   -6.4112 O   0  0  0  0  0  0
   -2.4777   57.8126   -8.7221 O   0  0  0  0  0  0
   -0.5139   56.3090   -9.4479 O   0  0  0  0  0  0
   -3.9643   54.4097  -11.1435 O   0  0  0  0  0  0
   -4.2597   53.2757   -8.2731 H   0  0  0  0  0  0
   -6.2983   57.5459   -6.8898 H   0  0  0  0  0  0
   -6.4037   53.0932  -10.2723 H   0  0  0  0  0  0
   -4.3144   56.4856   -5.8494 H   0  0  0  0  0  0
   -1.8552   58.4997   -8.4471 H   0  0  0  0  0  0
   -0.9381   56.0311  -10.2830 H   0  0  0  0  0  0
   -6.1253   59.6813   -7.9244 H   0  0  0  0  0  0
  1 13  2  0  0  0
  1 14  1  0  0  0
  2  1  1  0  0  0
  2  3  1  0  0  0
  2 15  1  0  0  0
  2 17  1  0  0  0
  3  4  1  0  0  0
  4  5  1  0  0  0
  4 16  1  0  0  0
  5  6  1  0  0  0
  5 12  1  0  0  0
  6  7  1  0  0  0
  6 17  1  0  0  0
  7  8  1  0  0  0
  7 18  1  0  0  0
  8  9  1  0  0  0
  8 19  1  0  0  0
  9 20  1  0  0  0
 10 11  1  0  0  0
 10 12  1  0  0  0
 10 21  2  0  0  0
 12 22  1  0  0  0
 14 28  1  0  0  0
 15 23  1  0  0  0
 16 24  1  0  0  0
 18 25  1  0  0  0
 19 26  1  0  0  0
 20 27  1  0  0  0
M  END
>  <CHROM.0>
93.03208591,179.17225911,49.07727307,-133.05839513,-22.47959460,63.30940517
129.30815091,130.70402774,171.51162622,-87.56377924

>  <CHROM.1>
5.24469780,17.95696599,-77.23321599,161.97672583,50.87456494,127.70550878
-75.15599076,108.83578761,148.89862460,134.64518178,-109.06833751,-4.88521101
56.16940876,-8.80928134,-2.55989465,0.10192396,-2.68058266

>  <FORMUL>
      SIA    C11 H19 N1 O9

>  <HET>
 SIA  A 467      39

>  <HETNAM>
     SIA O-SIALIC ACID

>  <Name>
SIA.pdb

>  <RI>
0

>  <Rbt.Current_Directory>
/home/malgorzata/Desktop/rDOCK_IFD/test12

>  <Rbt.Executable>
rbdock ($Id: //depot/dev/client3/rdock/2013.1/src/exe/rbdock.cxx#4 $)

>  <Rbt.Library>
libRbt.so (2013.1, Build901 2013/11/27)

>  <Rbt.Parameter_File>
/home/malgorzata/Desktop/rDock_2013.1_src/data/scripts/soft_docking.prm

>  <Rbt.Receptor>
cavity.prm

>  <SCORE>
-57.1545

>  <SCORE.INTER>
-24.8325

>  <SCORE.INTER.CONST>
1

>  <SCORE.INTER.POLAR>
-5.99961

>  <SCORE.INTER.REPUL>
0.781511

>  <SCORE.INTER.ROT>
5

>  <SCORE.INTER.VDW>
-18.7414

>  <SCORE.INTER.norm>
-1.1825

>  <SCORE.INTRA>
-4.24301

>  <SCORE.INTRA.DIHEDRAL>
10.8046

>  <SCORE.INTRA.DIHEDRAL.0>
24.6845

>  <SCORE.INTRA.POLAR>
0.922513

>  <SCORE.INTRA.POLAR.0>
-0.967721

>  <SCORE.INTRA.REPUL>
0

>  <SCORE.INTRA.REPUL.0>
0

>  <SCORE.INTRA.VDW>
-9.54048

>  <SCORE.INTRA.VDW.0>
7.44847

>  <SCORE.INTRA.norm>
-0.202048

>  <SCORE.RESTR>
0

>  <SCORE.RESTR.CAVITY>
0

>  <SCORE.RESTR.norm>
0

>  <SCORE.SYSTEM>
-28.079

>  <SCORE.SYSTEM.CONST>
0

>  <SCORE.SYSTEM.DIHEDRAL>
7.32473

>  <SCORE.SYSTEM.POLAR>
-7.32863

>  <SCORE.SYSTEM.REPUL>
0.0340601

>  <SCORE.SYSTEM.VDW>
-6.99434

>  <SCORE.SYSTEM.norm>
-1.3371

>  <SCORE.heavy>
21

>  <SCORE.norm>
-2.72164

$$$$
SIA.pdb
  rDOCK(R)          3D
libRbt.so/2013.1/901 2013/11/27
 28 28  0  0  0  0  0  0  0  0999 V2000
   -2.9395   58.1024   -4.0659 C   0  0  0  0  0  0
   -2.5981   58.0169   -5.5557 C   0  0  0  0  0  0
   -1.2213   57.8043   -6.1719 C   0  0  0  0  0  0
   -1.2845   57.1980   -7.5654 C   0  0  0  0  0  0
   -2.6140   57.4796   -8.2603 C   0  0  0  0  0  0
   -3.7408   56.8453   -7.4387 C   0  0  0  0  0  0
   -5.1268   57.1946   -8.0121 C   0  0  0  0  0  0
   -6.2530   56.4196   -7.3252 C   0  0  0  0  0  0
   -7.6460   56.5246   -7.9936 C   0  0  0  0  0  0
   -2.3370   55.5790   -9.8900 C   0  0  0  0  0  0
   -2.2942   55.2677  -11.3768 C   0  0  0  0  0  0
   -2.4933   56.8464   -9.5612 N   0  0  0  0  0  0
   -1.9346   57.9207   -3.3537 O   0  0  0  0  0  0
   -4.0143   58.2072   -3.4464 O   0  0  0  0  0  0
   -3.3591   59.2054   -5.7840 O   0  0  0  0  0  0
   -0.2657   57.8038   -8.3264 O   0  0  0  0  0  0
   -3.7563   57.3668   -6.0936 O   0  0  0  0  0  0
   -5.4318   58.5693   -7.8391 O   0  0  0  0  0  0
   -5.8600   55.0694   -7.4258 O   0  0  0  0  0  0
   -7.5462   56.3931   -9.4032 O   0  0  0  0  0  0
   -2.2047   54.7287   -9.0081 O   0  0  0  0  0  0
   -2.6183   57.5359  -10.2575 H   0  0  0  0  0  0
   -4.1469   58.8757   -6.2578 H   0  0  0  0  0  0
   -0.6999   58.2017   -9.1071 H   0  0  0  0  0  0
   -5.9330   58.5013   -8.6810 H   0  0  0  0  0  0
   -5.2199   54.9609   -6.7090 H   0  0  0  0  0  0
   -7.7957   55.4526   -9.4917 H   0  0  0  0  0  0
   -4.0364   58.0694   -2.5198 H   0  0  0  0  0  0
  1 13  2  0  0  0
  1 14  1  0  0  0
  2  1  1  0  0  0
  2  3  1  0  0  0
  2 15  1  0  0  0
  2 17  1  0  0  0
  3  4  1  0  0  0
  4  5  1  0  0  0
  4 16  1  0  0  0
  5  6  1  0  0  0
  5 12  1  0  0  0
  6  7  1  0  0  0
  6 17  1  0  0  0
  7  8  1  0  0  0
  7 18  1  0  0  0
  8  9  1  0  0  0
  8 19  1  0  0  0
  9 20  1  0  0  0
 10 11  1  0  0  0
 10 12  1  0  0  0
 10 21  2  0  0  0
 12 22  1  0  0  0
 14 28  1  0  0  0
 15 23  1  0  0  0
 16 24  1  0  0  0
 18 25  1  0  0  0
 19 26  1  0  0  0
 20 27  1  0  0  0
M  END
>  <CHROM.0>
-178.21256483,166.81109511,85.64625330,59.35622816,-68.95116253,-15.41139710
142.40790999,123.67718004,-156.49223455,46.49124210

>  <CHROM.1>
167.45476962,-2.69570936,-108.76324036,-123.36988426,62.92944041,172.17272747
-169.99508633,147.81577925,43.83288251,80.40031976,99.09470979,-3.61047774
57.08224046,-7.32318351,1.15284482,0.07633967,1.16574204

>  <FORMUL>
      SIA    C11 H19 N1 O9

>  <HET>
 SIA  A 467      39

>  <HETNAM>
     SIA O-SIALIC ACID

>  <Name>
SIA.pdb

>  <RI>
0

>  <Rbt.Current_Directory>
/home/malgorzata/Desktop/rDOCK_IFD/test12

>  <Rbt.Executable>
rbdock ($Id: //depot/dev/client3/rdock/2013.1/src/exe/rbdock.cxx#4 $)

>  <Rbt.Library>
libRbt.so (2013.1, Build901 2013/11/27)

>  <Rbt.Parameter_File>
/home/malgorzata/Desktop/rDock_2013.1_src/data/scripts/soft_docking.prm

>  <Rbt.Receptor>
cavity.prm

>  <SCORE>
-58.0536

>  <SCORE.INTER>
-25.871

>  <SCORE.INTER.CONST>
1

>  <SCORE.INTER.POLAR>
-7.87543

>  <SCORE.INTER.REPUL>
1.56023

>  <SCORE.INTER.ROT>
5

>  <SCORE.INTER.VDW>
-17.2957

>  <SCORE.INTER.norm>
-1.23195

>  <SCORE.INTRA>
-5.01467

>  <SCORE.INTRA.DIHEDRAL>
4.42924

>  <SCORE.INTRA.DIHEDRAL.0>
24.6845

>  <SCORE.INTRA.POLAR>
0.495688

>  <SCORE.INTRA.POLAR.0>
-0.967721

>  <SCORE.INTRA.REPUL>
0

>  <SCORE.INTRA.REPUL.0>
0

>  <SCORE.INTRA.VDW>
-7.58586

>  <SCORE.INTRA.VDW.0>
7.44847

>  <SCORE.INTRA.norm>
-0.238794

>  <SCORE.RESTR>
0.337535

>  <SCORE.RESTR.CAVITY>
0.337535

>  <SCORE.RESTR.norm>
0.0160731

>  <SCORE.SYSTEM>
-27.5055

>  <SCORE.SYSTEM.CONST>
0

>  <SCORE.SYSTEM.DIHEDRAL>
6.70904

>  <SCORE.SYSTEM.POLAR>
-6.9518

>  <SCORE.SYSTEM.REPUL>
0.0340601

>  <SCORE.SYSTEM.VDW>
-7.39421

>  <SCORE.SYSTEM.norm>
-1.30979

>  <SCORE.heavy>
21

>  <SCORE.norm>
-2.76446

$$$$
SIA.pdb
  rDOCK(R)          3D
libRbt.so/2013.1/901 2013/11/27
 28 28  0  0  0  0  0  0  0  0999 V2000
   -1.7938   57.8629   -5.0718 C   0  0  0  0  0  0
   -2.6805   58.8274   -5.8634 C   0  0  0  0  0  0
   -2.3817   60.2824   -6.2016 C   0  0  0  0  0  0
   -3.1280   60.7680   -7.4347 C   0  0  0  0  0  0
   -4.3971   59.9624   -7.6989 C   0  0  0  0  0  0
   -4.0076   58.5022   -7.9507 C   0  0  0  0  0  0
   -5.2481   57.6021   -8.1017 C   0  0  0  0  0  0
   -5.0006   56.4233   -9.0450 C   0  0  0  0  0  0
   -6.1802   55.4331   -9.2073 C   0  0  0  0  0  0
   -6.1854   61.0412   -9.1070 C   0  0  0  0  0  0
   -6.4322   61.6468  -10.4787 C   0  0  0  0  0  0
   -4.9764   60.5628   -8.8870 N   0  0  0  0  0  0
   -1.6272   56.7890   -5.6794 O   0  0  0  0  0  0
   -1.3109   57.9014   -3.9249 O   0  0  0  0  0  0
   -3.7942   58.4478   -5.0515 O   0  0  0  0  0  0
   -3.5094   62.1014   -7.1887 O   0  0  0  0  0  0
   -3.2913   57.9566   -6.8234 O   0  0  0  0  0  0
   -5.6378   57.0380   -6.8596 O   0  0  0  0  0  0
   -4.8013   57.0209  -10.3062 O   0  0  0  0  0  0
   -6.9799   55.7726  -10.3296 O   0  0  0  0  0  0
   -7.0483   60.9532   -8.2319 O   0  0  0  0  0  0
   -4.2703   60.6427   -9.5732 H   0  0  0  0  0  0
   -4.4628   59.1280   -5.2616 H   0  0  0  0  0  0
   -2.6848   62.6263   -7.1586 H   0  0  0  0  0  0
   -6.1173   57.8796   -6.6972 H   0  0  0  0  0  0
   -4.9035   56.2876  -10.9283 H   0  0  0  0  0  0
   -7.0425   56.7379  -10.1922 H   0  0  0  0  0  0
   -1.1773   58.7259   -3.5002 H   0  0  0  0  0  0
  1 13  2  0  0  0
  1 14  1  0  0  0
  2  1  1  0  0  0
  2  3  1  0  0  0
  2 15  1  0  0  0
  2 17  1  0  0  0
  3  4  1  0  0  0
  4  5  1  0  0  0
  4 16  1  0  0  0
  5  6  1  0  0  0
  5 12  1  0  0  0
  6  7  1  0  0  0
  6 17  1  0  0  0
  7  8  1  0  0  0
  7 18  1  0  0  0
  8  9  1  0  0  0
  8 19  1  0  0  0
  9 20  1  0  0  0
 10 11  1  0  0  0
 10 12  1  0  0  0
 10 21  2  0  0  0
 12 22  1  0  0  0
 14 28  1  0  0  0
 15 23  1  0  0  0
 16 24  1  0  0  0
 18 25  1  0  0  0
 19 26  1  0  0  0
 20 27  1  0  0  0
M  END
>  <CHROM.0>
-49.71069249,98.59892544,-161.48710395,-127.76641386,36.45654404,-80.82373855
131.91985384,-175.15168938,-179.18600813,-81.55078129

>  <CHROM.1>
-24.15188842,-129.02828876,166.94406193,67.47173983,-126.24702914,148.96063801
177.53989047,83.75007152,93.84058582,-164.06383929,-44.63219742,-4.32303221
58.68462462,-7.58770325,0.00089888,0.82511093,3.13658044

>  <FORMUL>
      SIA    C11 H19 N1 O9

>  <HET>
 SIA  A 467      39

>  <HETNAM>
     SIA O-SIALIC ACID

>  <Name>
SIA.pdb

>  <RI>
0

>  <Rbt.Current_Directory>
/home/malgorzata/Desktop/rDOCK_IFD/test12

>  <Rbt.Executable>
rbdock ($Id: //depot/dev/client3/rdock/2013.1/src/exe/rbdock.cxx#4 $)

>  <Rbt.Library>
libRbt.so (2013.1, Build901 2013/11/27)

>  <Rbt.Parameter_File>
/home/malgorzata/Desktop/rDock_2013.1_src/data/scripts/soft_docking.prm

>  <Rbt.Receptor>
cavity.prm

>  <SCORE>
-54.3585

>  <SCORE.INTER>
-28.4693

>  <SCORE.INTER.CONST>
1

>  <SCORE.INTER.POLAR>
-7.70937

>  <SCORE.INTER.REPUL>
0.383888

>  <SCORE.INTER.ROT>
5

>  <SCORE.INTER.VDW>
-14.5768

>  <SCORE.INTER.norm>
-1.35568

>  <SCORE.INTRA>
-3.68887

>  <SCORE.INTRA.DIHEDRAL>
-6.27155

>  <SCORE.INTRA.DIHEDRAL.0>
24.6845

>  <SCORE.INTRA.POLAR>
0.967721

>  <SCORE.INTRA.POLAR.0>
-0.967721

>  <SCORE.INTRA.REPUL>
0

>  <SCORE.INTRA.REPUL.0>
0

>  <SCORE.INTRA.VDW>
-5.72481

>  <SCORE.INTRA.VDW.0>
7.44847

>  <SCORE.INTRA.norm>
-0.17566

>  <SCORE.RESTR>
0

>  <SCORE.RESTR.CAVITY>
0

>  <SCORE.RESTR.norm>
0

>  <SCORE.SYSTEM>
-22.2004

>  <SCORE.SYSTEM.CONST>
0

>  <SCORE.SYSTEM.DIHEDRAL>
9.66601

>  <SCORE.SYSTEM.POLAR>
-6.79168

>  <SCORE.SYSTEM.REPUL>
0.511672

>  <SCORE.SYSTEM.VDW>
-6.50005

>  <SCORE.SYSTEM.norm>
-1.05716

>  <SCORE.heavy>
21

>  <SCORE.norm>
-2.5885

$$$$
SIA.pdb
  rDOCK(R)          3D
libRbt.so/2013.1/901 2013/11/27
 28 28  0  0  0  0  0  0  0  0999 V2000
   -7.6331   56.0869   -7.6824 C   0  0  0  0  0  0
   -6.2098   55.5359   -7.5635 C   0  0  0  0  0  0
   -5.5937   54.4009   -8.3714 C   0  0  0  0  0  0
   -4.0766   54.4817   -8.4427 C   0  0  0  0  0  0
   -3.4818   55.2591   -7.2716 C   0  0  0  0  0  0
   -4.0146   56.6949   -7.3149 C   0  0  0  0  0  0
   -3.5555   57.5075   -6.0899 C   0  0  0  0  0  0
   -2.0534   57.7970   -6.1130 C   0  0  0  0  0  0
   -1.6130   58.9940   -6.9914 C   0  0  0  0  0  0
   -1.2884   55.9208   -8.3185 C   0  0  0  0  0  0
    0.2054   55.6504   -8.2505 C   0  0  0  0  0  0
   -2.0477   55.2252   -7.4947 N   0  0  0  0  0  0
   -7.6502   57.3304   -7.6236 O   0  0  0  0  0  0
   -8.7530   55.5440   -7.7162 O   0  0  0  0  0  0
   -6.3727   55.4598   -6.1453 O   0  0  0  0  0  0
   -3.5886   53.1622   -8.3741 O   0  0  0  0  0  0
   -5.4558   56.7135   -7.2505 O   0  0  0  0  0  0
   -4.1995   58.7703   -6.0302 O   0  0  0  0  0  0
   -1.7431   58.1402   -4.7813 O   0  0  0  0  0  0
   -2.3361   60.1675   -6.6532 O   0  0  0  0  0  0
   -1.8056   56.7139   -9.1069 O   0  0  0  0  0  0
   -1.6447   54.5992   -6.8454 H   0  0  0  0  0  0
   -5.5051   55.1306   -5.8406 H   0  0  0  0  0  0
   -3.7797   52.7488   -9.2395 H   0  0  0  0  0  0
   -4.8524   58.3409   -5.4353 H   0  0  0  0  0  0
   -0.8301   57.8406   -4.6721 H   0  0  0  0  0  0
   -2.0096   60.2964   -5.7414 H   0  0  0  0  0  0
   -9.4999   56.0285   -8.0086 H   0  0  0  0  0  0
  1 13  2  0  0  0
  1 14  1  0  0  0
  2  1  1  0  0  0
  2  3  1  0  0  0
  2 15  1  0  0  0
  2 17  1  0  0  0
  3  4  1  0  0  0
  4  5  1  0  0  0
  4 16  1  0  0  0
  5  6  1  0  0  0
  5 12  1  0  0  0
  6  7  1  0  0  0
  6 17  1  0  0  0
  7  8  1  0  0  0
  7 18  1  0  0  0
  8  9  1  0  0  0
  8 19  1  0  0  0
  9 20  1  0  0  0
 10 11  1  0  0  0
 10 12  1  0  0  0
 10 21  2  0  0  0
 12 22  1  0  0  0
 14 28  1  0  0  0
 15 23  1  0  0  0
 16 24  1  0  0  0
 18 25  1  0  0  0
 19 26  1  0  0  0
 20 27  1  0  0  0
M  END
>  <CHROM.0>
-45.79833734,69.79062070,63.50110544,98.69599982,-71.15705685,-19.84368880
-29.34963891,114.07245782,-106.79309215,45.33671060

>  <CHROM.1>
-164.46651645,-138.16922092,-178.36154495,73.53966035,77.96940671,69.30490443
81.46534753,94.68052251,53.24005992,149.11770168,64.93088291,-3.97999580
56.49039264,-7.27912681,2.78877102,-0.05722545,-2.68354749

>  <FORMUL>
      SIA    C11 H19 N1 O9

>  <HET>
 SIA  A 467      39

>  <HETNAM>
     SIA O-SIALIC ACID

>  <Name>
SIA.pdb

>  <RI>
0

>  <Rbt.Current_Directory>
/home/malgorzata/Desktop/rDOCK_IFD/test12

>  <Rbt.Executable>
rbdock ($Id: //depot/dev/client3/rdock/2013.1/src/exe/rbdock.cxx#4 $)

>  <Rbt.Library>
libRbt.so (2013.1, Build901 2013/11/27)

>  <Rbt.Parameter_File>
/home/malgorzata/Desktop/rDock_2013.1_src/data/scripts/soft_docking.prm

>  <Rbt.Receptor>
cavity.prm

>  <SCORE>
-51.4417

>  <SCORE.INTER>
-18.8715

>  <SCORE.INTER.CONST>
1

>  <SCORE.INTER.POLAR>
-7.86416

>  <SCORE.INTER.REPUL>
1.97984

>  <SCORE.INTER.ROT>
5

>  <SCORE.INTER.VDW>
-12.4325

>  <SCORE.INTER.norm>
-0.898642

>  <SCORE.INTRA>
-5.25256

>  <SCORE.INTRA.DIHEDRAL>
-7.99314

>  <SCORE.INTRA.DIHEDRAL.0>
24.6845

>  <SCORE.INTRA.POLAR>
0.967721

>  <SCORE.INTRA.POLAR.0>
-0.967721

>  <SCORE.INTRA.REPUL>
0

>  <SCORE.INTRA.REPUL.0>
0

>  <SCORE.INTRA.VDW>
-6.94419

>  <SCORE.INTRA.VDW.0>
7.44847

>  <SCORE.INTRA.norm>
-0.250122

>  <SCORE.RESTR>
0.306748

>  <SCORE.RESTR.CAVITY>
0.306748

>  <SCORE.RESTR.norm>
0.014607

>  <SCORE.SYSTEM>
-27.6244

>  <SCORE.SYSTEM.CONST>
0

>  <SCORE.SYSTEM.DIHEDRAL>
8.20797

>  <SCORE.SYSTEM.POLAR>
-7.32718

>  <SCORE.SYSTEM.REPUL>
0.0340601

>  <SCORE.SYSTEM.VDW>
-6.98629

>  <SCORE.SYSTEM.norm>
-1.31545

>  <SCORE.heavy>
21

>  <SCORE.norm>
-2.44961

$$$$
SIA.pdb
  rDOCK(R)          3D
libRbt.so/2013.1/901 2013/11/27
 28 28  0  0  0  0  0  0  0  0999 V2000
   -2.1539   54.2092   -7.0498 C   0  0  0  0  0  0
   -1.0923   55.3054   -6.9284 C   0  0  0  0  0  0
    0.2172   55.4054   -7.7003 C   0  0  0  0  0  0
    0.7406   56.8304   -7.7942 C   0  0  0  0  0  0
    0.2244   57.7135   -6.6614 C   0  0  0  0  0  0
   -1.3033   57.7850   -6.7526 C   0  0  0  0  0  0
   -1.9069   58.5585   -5.5655 C   0  0  0  0  0  0
   -2.1036   60.0432   -5.8778 C   0  0  0  0  0  0
   -3.5187   60.4469   -6.3602 C   0  0  0  0  0  0
    1.9431   59.5419   -6.4437 C   0  0  0  0  0  0
    2.2893   60.9321   -6.9505 C   0  0  0  0  0  0
    0.8253   59.0130   -6.9015 N   0  0  0  0  0  0
   -1.7305   53.1128   -6.6392 O   0  0  0  0  0  0
   -3.2872   54.1789   -7.5644 O   0  0  0  0  0  0
   -1.1288   55.1638   -5.5064 O   0  0  0  0  0  0
    2.1431   56.7639   -7.6815 O   0  0  0  0  0  0
   -1.8881   56.4686   -6.6704 O   0  0  0  0  0  0
   -3.1861   58.0571   -5.2122 O   0  0  0  0  0  0
   -1.9006   60.6903   -4.6418 O   0  0  0  0  0  0
   -3.8778   61.7294   -5.8697 O   0  0  0  0  0  0
    2.6247   58.9218   -5.6257 O   0  0  0  0  0  0
    0.2786   59.4916   -7.5709 H   0  0  0  0  0  0
   -1.8520   55.7652   -5.2430 H   0  0  0  0  0  0
    2.3387   56.5756   -6.7420 H   0  0  0  0  0  0
   -2.7608   57.7207   -4.3933 H   0  0  0  0  0  0
   -2.0825   61.6203   -4.8351 H   0  0  0  0  0  0
   -4.2036   61.4740   -4.9847 H   0  0  0  0  0  0
   -3.8297   53.4222   -7.4586 H   0  0  0  0  0  0
  1 13  2  0  0  0
  1 14  1  0  0  0
  2  1  1  0  0  0
  2  3  1  0  0  0
  2 15  1  0  0  0
  2 17  1  0  0  0
  3  4  1  0  0  0
  4  5  1  0  0  0
  4 16  1  0  0  0
  5  6  1  0  0  0
  5 12  1  0  0  0
  6  7  1  0  0  0
  6 17  1  0  0  0
  7  8  1  0  0  0
  7 18  1  0  0  0
  8  9  1  0  0  0
  8 19  1  0  0  0
  9 20  1  0  0  0
 10 11  1  0  0  0
 10 12  1  0  0  0
 10 21  2  0  0  0
 12 22  1  0  0  0
 14 28  1  0  0  0
 15 23  1  0  0  0
 16 24  1  0  0  0
 18 25  1  0  0  0
 19 26  1  0  0  0
 20 27  1  0  0  0
M  END
>  <CHROM.0>
-90.10205013,172.82895420,34.54858450,-5.43844713,-2.95744338,82.36132783
169.96331803,4.03366369,129.65537274,-23.39209999

>  <CHROM.1>
-173.76829174,67.00381310,-87.11704486,-73.86950100,-92.86092435,93.03572560
95.77760219,110.40882071,144.32847613,-176.48028851,-83.55165517,-0.90697144
57.67149023,-6.45665492,1.66325466,-0.17379120,-2.95222420

>  <FORMUL>
      SIA    C11 H19 N1 O9

>  <HET>
 SIA  A 467      39

>  <HETNAM>
     SIA O-SIALIC ACID

>  <Name>
SIA.pdb

>  <RI>
0

>  <Rbt.Current_Directory>
/home/malgorzata/Desktop/rDOCK_IFD/test12

>  <Rbt.Executable>
rbdock ($Id: //depot/dev/client3/rdock/2013.1/src/exe/rbdock.cxx#4 $)

>  <Rbt.Library>
libRbt.so (2013.1, Build901 2013/11/27)

>  <Rbt.Parameter_File>
/home/malgorzata/Desktop/rDock_2013.1_src/data/scripts/soft_docking.prm

>  <Rbt.Receptor>
cavity.prm

>  <SCORE>
-58.7703

>  <SCORE.INTER>
-32.9436

>  <SCORE.INTER.CONST>
1

>  <SCORE.INTER.POLAR>
-6.88648

>  <SCORE.INTER.REPUL>
0.610594

>  <SCORE.INTER.ROT>
5

>  <SCORE.INTER.VDW>
-22.9825

>  <SCORE.INTER.norm>
-1.56874

>  <SCORE.INTRA>
-3.17795

>  <SCORE.INTRA.DIHEDRAL>
4.43945

>  <SCORE.INTRA.DIHEDRAL.0>
24.6845

>  <SCORE.INTRA.POLAR>
0.803068

>  <SCORE.INTRA.POLAR.0>
-0.967721

>  <SCORE.INTRA.REPUL>
0

>  <SCORE.INTRA.REPUL.0>
0

>  <SCORE.INTRA.VDW>
-6.79628

>  <SCORE.INTRA.VDW.0>
7.44847

>  <SCORE.INTRA.norm>
-0.151331

>  <SCORE.RESTR>
0.126081

>  <SCORE.RESTR.CAVITY>
0.126081

>  <SCORE.RESTR.norm>
0.00600388

>  <SCORE.SYSTEM>
-22.7748

>  <SCORE.SYSTEM.CONST>
0

>  <SCORE.SYSTEM.DIHEDRAL>
11.9576

>  <SCORE.SYSTEM.POLAR>
-6.76633

>  <SCORE.SYSTEM.REPUL>
0.0340601

>  <SCORE.SYSTEM.VDW>
-5.91842

>  <SCORE.SYSTEM.norm>
-1.08452

>  <SCORE.heavy>
21

>  <SCORE.norm>
-2.79858

$$$$
