OHT.pdb
  rDOCK(R)          3D
libRbt.so/2013.1/901 2013/11/27
 30 32  0  0  0  0  0  0  0  0999 V2000
   69.0743   36.7732   84.4959 C   0  0  0  0  0  0
   70.0497   36.5058   83.3826 C   0  0  0  0  0  0
   69.3537   36.2053   82.0713 C   0  0  0  0  0  0
   69.4497   37.3143   81.0736 C   0  0  0  0  0  0
   68.8570   38.5684   81.3324 C   0  0  0  0  0  0
   68.9895   39.6173   80.4219 C   0  0  0  0  0  0
   69.6981   39.4549   79.2477 C   0  0  0  0  0  0
   70.2809   38.2393   78.9788 C   0  0  0  0  0  0
   70.1570   37.1802   79.8850 C   0  0  0  0  0  0
   68.7030   35.0283   81.8350 C   0  0  0  0  0  0
   67.5309   34.5378   82.6491 C   0  0  0  0  0  0
   67.6138   33.3606   83.4563 C   0  0  0  0  0  0
   66.4937   32.8977   84.1616 C   0  0  0  0  0  0
   65.2811   33.6064   84.0673 C   0  0  0  0  0  0
   64.2013   33.1256   84.7460 O   0  0  0  0  0  0
   65.1882   34.7732   83.2749 C   0  0  0  0  0  0
   66.3091   35.2143   82.5830 C   0  0  0  0  0  0
   69.0990   34.1102   80.7628 C   0  0  0  0  0  0
   68.2676   33.8558   79.6746 C   0  0  0  0  0  0
   68.6300   33.0227   78.6540 C   0  0  0  0  0  0
   69.8687   32.4027   78.6875 C   0  0  0  0  0  0
   70.3232   31.5857   77.6923 O   0  0  0  0  0  0
   70.7281   32.1427   76.4454 C   0  0  0  0  0  0
   69.4823   32.6722   75.7883 C   0  0  0  0  0  0
   69.6680   33.0429   74.4121 N   0  0  0  0  0  0
   68.5921   32.5287   73.5634 C   0  0  0  0  0  0
   69.6822   34.5055   74.2952 C   0  0  0  0  0  0
   70.7330   32.6337   79.7717 C   0  0  0  0  0  0
   70.3464   33.4715   80.7799 C   0  0  0  0  0  0
   64.3019   32.4049   85.3362 H   0  0  0  0  0  0
  1  2  1  0  0  0
  2  3  1  0  0  0
  3  4  1  0  0  0
  3 10  1  0  0  0
  4  5  2  0  0  0
  4  9  1  0  0  0
  5  6  1  0  0  0
  6  7  2  0  0  0
  7  8  1  0  0  0
  8  9  2  0  0  0
 10 11  1  0  0  0
 10 18  1  0  0  0
 11 12  2  0  0  0
 11 17  1  0  0  0
 12 13  1  0  0  0
 13 14  2  0  0  0
 14 15  1  0  0  0
 14 16  1  0  0  0
 15 30  1  0  0  0
 16 17  2  0  0  0
 18 19  2  0  0  0
 18 29  1  0  0  0
 19 20  1  0  0  0
 20 21  2  0  0  0
 21 22  1  0  0  0
 21 28  1  0  0  0
 22 23  1  0  0  0
 23 24  1  0  0  0
 24 25  1  0  0  0
 25 26  1  0  0  0
 25 27  1  0  0  0
 28 29  2  0  0  0
M  END
>  <CHROM.0>
-1.48560260,-63.53401712,-100.60931671,7.35702664

>  <CHROM.1>
107.29136250,-63.89210265,60.31108225,-114.33449754,-114.26824324,7.24393040
72.75114999,-68.11966382,-168.89654046,133.87207308,68.70392840,34.71864931
80.22234977,-2.25676673,-1.04976588,-2.44209278

>  <FORMUL>
      OHT    C26 H29 N1 O2

>  <HET>
 OHT  A 600      29

>  <HETNAM>
     OHT 4-HYDROXYTAMOXIFEN

>  <Name>
OHT.pdb

>  <RI>
0

>  <Rbt.Current_Directory>
/home/malgorzata/Desktop/rDOCK_IFD/Wyniki/5_estrogen_receptor/IFD

>  <Rbt.Executable>
rbdock ($Id: //depot/dev/client3/rdock/2013.1/src/exe/rbdock.cxx#4 $)

>  <Rbt.Library>
libRbt.so (2013.1, Build901 2013/11/27)

>  <Rbt.Parameter_File>
/home/malgorzata/Desktop/rDock_2013.1_src/data/scripts/hard_docking.prm

>  <Rbt.Receptor>
cavity.prm

>  <SCORE>
-22.5377

>  <SCORE.INTER>
-3.62963

>  <SCORE.INTER.CONST>
1

>  <SCORE.INTER.POLAR>
0

>  <SCORE.INTER.REPUL>
0

>  <SCORE.INTER.ROT>
9

>  <SCORE.INTER.VDW>
-18.0296

>  <SCORE.INTER.norm>
-0.12516

>  <SCORE.INTRA>
-3.97642

>  <SCORE.INTRA.DIHEDRAL>
-1.23564

>  <SCORE.INTRA.DIHEDRAL.0>
14.7815

>  <SCORE.INTRA.POLAR>
0

>  <SCORE.INTRA.POLAR.0>
0

>  <SCORE.INTRA.REPUL>
0

>  <SCORE.INTRA.REPUL.0>
0

>  <SCORE.INTRA.VDW>
-3.35859

>  <SCORE.INTRA.VDW.0>
-0.0652974

>  <SCORE.INTRA.norm>
-0.137118

>  <SCORE.RESTR>
0.869757

>  <SCORE.RESTR.CAVITY>
0.869757

>  <SCORE.RESTR.norm>
0.0299916

>  <SCORE.SYSTEM>
-15.8014

>  <SCORE.SYSTEM.CONST>
0

>  <SCORE.SYSTEM.DIHEDRAL>
0.941738

>  <SCORE.SYSTEM.REPUL>
2.10821

>  <SCORE.SYSTEM.VDW>
-26.8134

>  <SCORE.SYSTEM.norm>
-0.544877

>  <SCORE.heavy>
29

>  <SCORE.norm>
-0.777163

$$$$
OHT.pdb
  rDOCK(R)          3D
libRbt.so/2013.1/901 2013/11/27
 30 32  0  0  0  0  0  0  0  0999 V2000
   70.2210   31.8251   79.3754 C   0  0  0  0  0  0
   70.7788   32.4886   80.6045 C   0  0  0  0  0  0
   69.6908   33.0496   81.4964 C   0  0  0  0  0  0
   69.3117   32.1428   82.6227 C   0  0  0  0  0  0
   69.9188   32.2760   83.8894 C   0  0  0  0  0  0
   69.5286   31.4611   84.9526 C   0  0  0  0  0  0
   68.5448   30.5052   84.7924 C   0  0  0  0  0  0
   67.9436   30.3608   83.5647 C   0  0  0  0  0  0
   68.3247   31.1735   82.4911 C   0  0  0  0  0  0
   69.1177   34.2702   81.2813 C   0  0  0  0  0  0
   68.6903   35.2046   82.3866 C   0  0  0  0  0  0
   67.4304   35.0633   83.0477 C   0  0  0  0  0  0
   67.0356   35.9771   84.0354 C   0  0  0  0  0  0
   67.8956   37.0396   84.3719 C   0  0  0  0  0  0
   67.4810   37.9261   85.3205 O   0  0  0  0  0  0
   69.1447   37.1874   83.7271 C   0  0  0  0  0  0
   69.5165   36.2722   82.7504 C   0  0  0  0  0  0
   68.8454   34.7872   79.9367 C   0  0  0  0  0  0
   69.8586   35.3074   79.1349 C   0  0  0  0  0  0
   69.6280   35.7707   77.8703 C   0  0  0  0  0  0
   68.3439   35.7254   77.3515 C   0  0  0  0  0  0
   68.0340   36.1330   76.0857 O   0  0  0  0  0  0
   67.6891   35.1706   75.0939 C   0  0  0  0  0  0
   68.9642   34.4636   74.7218 C   0  0  0  0  0  0
   69.1729   33.2343   75.4366 N   0  0  0  0  0  0
   69.1273   32.0752   74.5441 C   0  0  0  0  0  0
   70.4894   33.2602   76.0842 C   0  0  0  0  0  0
   67.2957   35.2095   78.1333 C   0  0  0  0  0  0
   67.5532   34.7526   79.3954 C   0  0  0  0  0  0
   66.6582   37.8010   85.7510 H   0  0  0  0  0  0
  1  2  1  0  0  0
  2  3  1  0  0  0
  3  4  1  0  0  0
  3 10  1  0  0  0
  4  5  2  0  0  0
  4  9  1  0  0  0
  5  6  1  0  0  0
  6  7  2  0  0  0
  7  8  1  0  0  0
  8  9  2  0  0  0
 10 11  1  0  0  0
 10 18  1  0  0  0
 11 12  2  0  0  0
 11 17  1  0  0  0
 12 13  1  0  0  0
 13 14  2  0  0  0
 14 15  1  0  0  0
 14 16  1  0  0  0
 15 30  1  0  0  0
 16 17  2  0  0  0
 18 19  2  0  0  0
 18 29  1  0  0  0
 19 20  1  0  0  0
 20 21  2  0  0  0
 21 22  1  0  0  0
 21 28  1  0  0  0
 22 23  1  0  0  0
 23 24  1  0  0  0
 24 25  1  0  0  0
 25 26  1  0  0  0
 25 27  1  0  0  0
 28 29  2  0  0  0
M  END
>  <CHROM.0>
-1.47933956,-63.52688474,100.05560977,3.53362268

>  <CHROM.1>
96.92733353,93.63391221,-143.69677552,-83.09033670,-76.90089419,2.22189282
108.82901373,-72.83876030,95.37274772,114.14104056,68.81484271,34.15430560
80.40483477,-1.36109771,-1.32588479,1.78181433

>  <FORMUL>
      OHT    C26 H29 N1 O2

>  <HET>
 OHT  A 600      29

>  <HETNAM>
     OHT 4-HYDROXYTAMOXIFEN

>  <Name>
OHT.pdb

>  <RI>
0

>  <Rbt.Current_Directory>
/home/malgorzata/Desktop/rDOCK_IFD/Wyniki/5_estrogen_receptor/IFD

>  <Rbt.Executable>
rbdock ($Id: //depot/dev/client3/rdock/2013.1/src/exe/rbdock.cxx#4 $)

>  <Rbt.Library>
libRbt.so (2013.1, Build901 2013/11/27)

>  <Rbt.Parameter_File>
/home/malgorzata/Desktop/rDock_2013.1_src/data/scripts/hard_docking.prm

>  <Rbt.Receptor>
cavity.prm

>  <SCORE>
-14.603

>  <SCORE.INTER>
2.82934

>  <SCORE.INTER.CONST>
1

>  <SCORE.INTER.POLAR>
0

>  <SCORE.INTER.REPUL>
0

>  <SCORE.INTER.ROT>
9

>  <SCORE.INTER.VDW>
-11.5707

>  <SCORE.INTER.norm>
0.0975636

>  <SCORE.INTRA>
-3.43309

>  <SCORE.INTRA.DIHEDRAL>
3.31248

>  <SCORE.INTRA.DIHEDRAL.0>
14.7815

>  <SCORE.INTRA.POLAR>
0

>  <SCORE.INTRA.POLAR.0>
0

>  <SCORE.INTRA.REPUL>
0

>  <SCORE.INTRA.REPUL.0>
0

>  <SCORE.INTRA.VDW>
-5.08933

>  <SCORE.INTRA.VDW.0>
-0.0652974

>  <SCORE.INTRA.norm>
-0.118382

>  <SCORE.RESTR>
1.8414

>  <SCORE.RESTR.CAVITY>
1.8414

>  <SCORE.RESTR.norm>
0.0634966

>  <SCORE.SYSTEM>
-15.8406

>  <SCORE.SYSTEM.CONST>
0

>  <SCORE.SYSTEM.DIHEDRAL>
0.887365

>  <SCORE.SYSTEM.REPUL>
2.10809

>  <SCORE.SYSTEM.VDW>
-26.8248

>  <SCORE.SYSTEM.norm>
-0.546229

>  <SCORE.heavy>
29

>  <SCORE.norm>
-0.503551

$$$$
OHT.pdb
  rDOCK(R)          3D
libRbt.so/2013.1/901 2013/11/27
 30 32  0  0  0  0  0  0  0  0999 V2000
   67.5962   31.8191   80.7552 C   0  0  0  0  0  0
   67.1933   32.9560   81.6538 C   0  0  0  0  0  0
   68.3283   33.9313   81.8875 C   0  0  0  0  0  0
   69.0978   33.6666   83.1415 C   0  0  0  0  0  0
   68.6640   34.1931   84.3766 C   0  0  0  0  0  0
   69.3560   33.9044   85.5533 C   0  0  0  0  0  0
   70.4801   33.1023   85.5390 C   0  0  0  0  0  0
   70.9176   32.5820   84.3443 C   0  0  0  0  0  0
   70.2310   32.8625   83.1575 C   0  0  0  0  0  0
   68.6118   34.9524   81.0264 C   0  0  0  0  0  0
   68.9587   36.3529   81.4685 C   0  0  0  0  0  0
   68.0079   37.4191   81.4095 C   0  0  0  0  0  0
   68.3723   38.7223   81.7773 C   0  0  0  0  0  0
   69.6891   38.9722   82.2075 C   0  0  0  0  0  0
   70.0247   40.2506   82.5404 O   0  0  0  0  0  0
   70.6367   37.9254   82.2727 C   0  0  0  0  0  0
   70.2559   36.6417   81.9027 C   0  0  0  0  0  0
   68.5891   34.7846   79.5701 C   0  0  0  0  0  0
   67.6582   35.4463   78.7729 C   0  0  0  0  0  0
   67.6375   35.3215   77.4124 C   0  0  0  0  0  0
   68.5728   34.5121   76.7880 C   0  0  0  0  0  0
   68.6453   34.3610   75.4328 O   0  0  0  0  0  0
   69.9141   34.2241   74.8002 C   0  0  0  0  0  0
   69.6535   34.2036   73.3183 C   0  0  0  0  0  0
   69.0937   35.4273   72.8133 N   0  0  0  0  0  0
   70.0950   36.2307   72.1105 C   0  0  0  0  0  0
   68.0116   35.1201   71.8710 C   0  0  0  0  0  0
   69.5258   33.8264   77.5610 C   0  0  0  0  0  0
   69.5248   33.9683   78.9204 C   0  0  0  0  0  0
   69.4245   40.9508   82.3746 H   0  0  0  0  0  0
  1  2  1  0  0  0
  2  3  1  0  0  0
  3  4  1  0  0  0
  3 10  1  0  0  0
  4  5  2  0  0  0
  4  9  1  0  0  0
  5  6  1  0  0  0
  6  7  2  0  0  0
  7  8  1  0  0  0
  8  9  2  0  0  0
 10 11  1  0  0  0
 10 18  1  0  0  0
 11 12  2  0  0  0
 11 17  1  0  0  0
 12 13  1  0  0  0
 13 14  2  0  0  0
 14 15  1  0  0  0
 14 16  1  0  0  0
 15 30  1  0  0  0
 16 17  2  0  0  0
 18 19  2  0  0  0
 18 29  1  0  0  0
 19 20  1  0  0  0
 20 21  2  0  0  0
 21 22  1  0  0  0
 21 28  1  0  0  0
 22 23  1  0  0  0
 23 24  1  0  0  0
 24 25  1  0  0  0
 25 26  1  0  0  0
 25 27  1  0  0  0
 28 29  2  0  0  0
M  END
>  <CHROM.0>
-1.44782399,-63.49083453,114.43481330,-178.61275424

>  <CHROM.1>
-95.25881926,-85.65909610,137.37608223,-102.44112649,114.30727510,-7.99046071
143.70373408,-175.00864504,63.83309340,103.48934407,69.07766871,35.11399519
79.67106219,1.13976135,1.46759750,1.99662345

>  <FORMUL>
      OHT    C26 H29 N1 O2

>  <HET>
 OHT  A 600      29

>  <HETNAM>
     OHT 4-HYDROXYTAMOXIFEN

>  <Name>
OHT.pdb

>  <RI>
0

>  <Rbt.Current_Directory>
/home/malgorzata/Desktop/rDOCK_IFD/Wyniki/5_estrogen_receptor/IFD

>  <Rbt.Executable>
rbdock ($Id: //depot/dev/client3/rdock/2013.1/src/exe/rbdock.cxx#4 $)

>  <Rbt.Library>
libRbt.so (2013.1, Build901 2013/11/27)

>  <Rbt.Parameter_File>
/home/malgorzata/Desktop/rDock_2013.1_src/data/scripts/hard_docking.prm

>  <Rbt.Receptor>
cavity.prm

>  <SCORE>
-20.8332

>  <SCORE.INTER>
-0.163157

>  <SCORE.INTER.CONST>
1

>  <SCORE.INTER.POLAR>
0

>  <SCORE.INTER.REPUL>
0.00224746

>  <SCORE.INTER.ROT>
9

>  <SCORE.INTER.VDW>
-14.5744

>  <SCORE.INTER.norm>
-0.00562609

>  <SCORE.INTRA>
-4.88768

>  <SCORE.INTRA.DIHEDRAL>
-3.55249

>  <SCORE.INTRA.DIHEDRAL.0>
14.7815

>  <SCORE.INTRA.POLAR>
0

>  <SCORE.INTRA.POLAR.0>
0

>  <SCORE.INTRA.REPUL>
0

>  <SCORE.INTRA.REPUL.0>
0

>  <SCORE.INTRA.VDW>
-3.11144

>  <SCORE.INTRA.VDW.0>
-0.0652974

>  <SCORE.INTRA.norm>
-0.168541

>  <SCORE.RESTR>
0

>  <SCORE.RESTR.CAVITY>
0

>  <SCORE.RESTR.norm>
0

>  <SCORE.SYSTEM>
-15.7824

>  <SCORE.SYSTEM.CONST>
0

>  <SCORE.SYSTEM.DIHEDRAL>
0.868465

>  <SCORE.SYSTEM.REPUL>
2.10746

>  <SCORE.SYSTEM.VDW>
-26.7539

>  <SCORE.SYSTEM.norm>
-0.54422

>  <SCORE.heavy>
29

>  <SCORE.norm>
-0.718387

$$$$
OHT.pdb
  rDOCK(R)          3D
libRbt.so/2013.1/901 2013/11/27
 30 32  0  0  0  0  0  0  0  0999 V2000
   65.3334   35.3254   80.2560 C   0  0  0  0  0  0
   66.6271   35.2523   79.4924 C   0  0  0  0  0  0
   67.8305   35.4935   80.3799 C   0  0  0  0  0  0
   68.5187   36.7942   80.1168 C   0  0  0  0  0  0
   69.5258   36.8893   79.1331 C   0  0  0  0  0  0
   70.1325   38.1146   78.8549 C   0  0  0  0  0  0
   69.7669   39.2600   79.5343 C   0  0  0  0  0  0
   68.7885   39.1852   80.4969 C   0  0  0  0  0  0
   68.1710   37.9626   80.7837 C   0  0  0  0  0  0
   68.2385   34.5991   81.3276 C   0  0  0  0  0  0
   68.2931   33.1072   81.1070 C   0  0  0  0  0  0
   67.1841   32.2588   81.4148 C   0  0  0  0  0  0
   67.2801   30.8696   81.2494 C   0  0  0  0  0  0
   68.4841   30.3154   80.7751 C   0  0  0  0  0  0
   68.5596   28.9612   80.6418 O   0  0  0  0  0  0
   69.5859   31.1447   80.4648 C   0  0  0  0  0  0
   69.4708   32.5184   80.6368 C   0  0  0  0  0  0
   68.6519   35.0097   82.6729 C   0  0  0  0  0  0
   67.7268   35.4344   83.6237 C   0  0  0  0  0  0
   68.0907   35.7971   84.8899 C   0  0  0  0  0  0
   69.4256   35.7431   85.2571 C   0  0  0  0  0  0
   69.8693   36.0524   86.5109 O   0  0  0  0  0  0
   69.1734   37.0188   87.2924 C   0  0  0  0  0  0
   69.9798   37.2155   88.5475 C   0  0  0  0  0  0
   70.3037   35.9894   89.2240 N   0  0  0  0  0  0
   71.5450   36.1062   89.9906 C   0  0  0  0  0  0
   69.2236   35.6419   90.1546 C   0  0  0  0  0  0
   70.3876   35.3220   84.3227 C   0  0  0  0  0  0
   69.9973   34.9647   83.0626 C   0  0  0  0  0  0
   67.7891   28.4370   80.7397 H   0  0  0  0  0  0
  1  2  1  0  0  0
  2  3  1  0  0  0
  3  4  1  0  0  0
  3 10  1  0  0  0
  4  5  2  0  0  0
  4  9  1  0  0  0
  5  6  1  0  0  0
  6  7  2  0  0  0
  7  8  1  0  0  0
  8  9  2  0  0  0
 10 11  1  0  0  0
 10 18  1  0  0  0
 11 12  2  0  0  0
 11 17  1  0  0  0
 12 13  1  0  0  0
 13 14  2  0  0  0
 14 15  1  0  0  0
 14 16  1  0  0  0
 15 30  1  0  0  0
 16 17  2  0  0  0
 18 19  2  0  0  0
 18 29  1  0  0  0
 19 20  1  0  0  0
 20 21  2  0  0  0
 21 22  1  0  0  0
 21 28  1  0  0  0
 22 23  1  0  0  0
 23 24  1  0  0  0
 24 25  1  0  0  0
 25 26  1  0  0  0
 25 27  1  0  0  0
 28 29  2  0  0  0
M  END
>  <CHROM.0>
-1.47053095,-63.51683563,135.18105493,4.07771573

>  <CHROM.1>
-110.09982368,-87.43023619,42.56702151,-91.03967731,73.28852314,9.10333205
-30.51242944,-174.96161183,-51.62849823,152.28996902,68.83828540,35.09197315
82.94732075,-2.93777036,1.35767115,2.65444041

>  <FORMUL>
      OHT    C26 H29 N1 O2

>  <HET>
 OHT  A 600      29

>  <HETNAM>
     OHT 4-HYDROXYTAMOXIFEN

>  <Name>
OHT.pdb

>  <RI>
0

>  <Rbt.Current_Directory>
/home/malgorzata/Desktop/rDOCK_IFD/Wyniki/5_estrogen_receptor/IFD

>  <Rbt.Executable>
rbdock ($Id: //depot/dev/client3/rdock/2013.1/src/exe/rbdock.cxx#4 $)

>  <Rbt.Library>
libRbt.so (2013.1, Build901 2013/11/27)

>  <Rbt.Parameter_File>
/home/malgorzata/Desktop/rDock_2013.1_src/data/scripts/hard_docking.prm

>  <Rbt.Receptor>
cavity.prm

>  <SCORE>
-17.55

>  <SCORE.INTER>
-4.1498

>  <SCORE.INTER.CONST>
1

>  <SCORE.INTER.POLAR>
-1.03923

>  <SCORE.INTER.REPUL>
0

>  <SCORE.INTER.ROT>
9

>  <SCORE.INTER.VDW>
-15.0164

>  <SCORE.INTER.norm>
-0.143097

>  <SCORE.INTRA>
-6.34585

>  <SCORE.INTRA.DIHEDRAL>
-5.82522

>  <SCORE.INTRA.DIHEDRAL.0>
14.7815

>  <SCORE.INTRA.POLAR>
0

>  <SCORE.INTRA.POLAR.0>
0

>  <SCORE.INTRA.REPUL>
0

>  <SCORE.INTRA.REPUL.0>
0

>  <SCORE.INTRA.VDW>
-3.43324

>  <SCORE.INTRA.VDW.0>
-0.0652974

>  <SCORE.INTRA.norm>
-0.218822

>  <SCORE.RESTR>
8.7806

>  <SCORE.RESTR.CAVITY>
8.7806

>  <SCORE.RESTR.norm>
0.302779

>  <SCORE.SYSTEM>
-15.8349

>  <SCORE.SYSTEM.CONST>
0

>  <SCORE.SYSTEM.DIHEDRAL>
0.887118

>  <SCORE.SYSTEM.REPUL>
2.10791

>  <SCORE.SYSTEM.VDW>
-26.818

>  <SCORE.SYSTEM.norm>
-0.546031

>  <SCORE.heavy>
29

>  <SCORE.norm>
-0.605171

$$$$
OHT.pdb
  rDOCK(R)          3D
libRbt.so/2013.1/901 2013/11/27
 30 32  0  0  0  0  0  0  0  0999 V2000
   65.4547   36.5733   82.9357 C   0  0  0  0  0  0
   66.6245   35.8358   83.5273 C   0  0  0  0  0  0
   67.4903   35.1894   82.4658 C   0  0  0  0  0  0
   67.3202   33.7072   82.3740 C   0  0  0  0  0  0
   67.9487   32.8518   83.3036 C   0  0  0  0  0  0
   67.7492   31.4721   83.2460 C   0  0  0  0  0  0
   66.9377   30.9103   82.2800 C   0  0  0  0  0  0
   66.3186   31.7287   81.3655 C   0  0  0  0  0  0
   66.5091   33.1143   81.4141 C   0  0  0  0  0  0
   68.3422   35.9044   81.6736 C   0  0  0  0  0  0
   69.1043   37.1200   82.1416 C   0  0  0  0  0  0
   69.0660   38.3559   81.4237 C   0  0  0  0  0  0
   69.8252   39.4545   81.8518 C   0  0  0  0  0  0
   70.6290   39.3285   83.0005 C   0  0  0  0  0  0
   71.3731   40.4037   83.3851 O   0  0  0  0  0  0
   70.6724   38.1125   83.7199 C   0  0  0  0  0  0
   69.9137   37.0358   83.2784 C   0  0  0  0  0  0
   68.5869   35.5622   80.2692 C   0  0  0  0  0  0
   67.5525   35.5164   79.3375 C   0  0  0  0  0  0
   67.7650   35.2237   78.0198 C   0  0  0  0  0  0
   69.0524   34.9631   77.5786 C   0  0  0  0  0  0
   69.3566   34.6987   76.2740 O   0  0  0  0  0  0
   68.4117   34.9952   75.2502 C   0  0  0  0  0  0
   69.0441   34.5777   73.9501 C   0  0  0  0  0  0
   68.2610   34.9139   72.7927 N   0  0  0  0  0  0
   69.0972   35.0763   71.6025 C   0  0  0  0  0  0
   67.2924   33.8440   72.5275 C   0  0  0  0  0  0
   70.1208   34.9974   78.4915 C   0  0  0  0  0  0
   69.8812   35.2927   79.8042 C   0  0  0  0  0  0
   71.5682   41.0828   82.7697 H   0  0  0  0  0  0
  1  2  1  0  0  0
  2  3  1  0  0  0
  3  4  1  0  0  0
  3 10  1  0  0  0
  4  5  2  0  0  0
  4  9  1  0  0  0
  5  6  1  0  0  0
  6  7  2  0  0  0
  7  8  1  0  0  0
  8  9  2  0  0  0
 10 11  1  0  0  0
 10 18  1  0  0  0
 11 12  2  0  0  0
 11 17  1  0  0  0
 12 13  1  0  0  0
 13 14  2  0  0  0
 14 15  1  0  0  0
 14 16  1  0  0  0
 15 30  1  0  0  0
 16 17  2  0  0  0
 18 19  2  0  0  0
 18 29  1  0  0  0
 19 20  1  0  0  0
 20 21  2  0  0  0
 21 22  1  0  0  0
 21 28  1  0  0  0
 22 23  1  0  0  0
 23 24  1  0  0  0
 24 25  1  0  0  0
 25 26  1  0  0  0
 25 27  1  0  0  0
 28 29  2  0  0  0
M  END
>  <CHROM.0>
-1.47318085,-63.51986090,-122.82228606,7.74273685

>  <CHROM.1>
-105.16522643,-78.80243630,34.95160360,-127.90544424,58.55664609,-19.99289672
15.25753497,-179.49603911,-175.03981255,153.78540027,68.48089179,35.43650394
79.86272525,1.51084186,1.07039657,1.40614599

>  <FORMUL>
      OHT    C26 H29 N1 O2

>  <HET>
 OHT  A 600      29

>  <HETNAM>
     OHT 4-HYDROXYTAMOXIFEN

>  <Name>
OHT.pdb

>  <RI>
0

>  <Rbt.Current_Directory>
/home/malgorzata/Desktop/rDOCK_IFD/Wyniki/5_estrogen_receptor/IFD

>  <Rbt.Executable>
rbdock ($Id: //depot/dev/client3/rdock/2013.1/src/exe/rbdock.cxx#4 $)

>  <Rbt.Library>
libRbt.so (2013.1, Build901 2013/11/27)

>  <Rbt.Parameter_File>
/home/malgorzata/Desktop/rDock_2013.1_src/data/scripts/hard_docking.prm

>  <Rbt.Receptor>
cavity.prm

>  <SCORE>
-25.0354

>  <SCORE.INTER>
-3.6077

>  <SCORE.INTER.CONST>
1

>  <SCORE.INTER.POLAR>
-0.479103

>  <SCORE.INTER.REPUL>
0

>  <SCORE.INTER.ROT>
9

>  <SCORE.INTER.VDW>
-16.3787

>  <SCORE.INTER.norm>
-0.124403

>  <SCORE.INTRA>
-5.64634

>  <SCORE.INTRA.DIHEDRAL>
-6.2652

>  <SCORE.INTRA.DIHEDRAL.0>
14.7815

>  <SCORE.INTRA.POLAR>
0

>  <SCORE.INTRA.POLAR.0>
0

>  <SCORE.INTRA.REPUL>
0

>  <SCORE.INTRA.REPUL.0>
0

>  <SCORE.INTRA.VDW>
-2.51375

>  <SCORE.INTRA.VDW.0>
-0.0652974

>  <SCORE.INTRA.norm>
-0.194702

>  <SCORE.RESTR>
0.0209206

>  <SCORE.RESTR.CAVITY>
0.0209206

>  <SCORE.RESTR.norm>
0.000721401

>  <SCORE.SYSTEM>
-15.8023

>  <SCORE.SYSTEM.CONST>
0

>  <SCORE.SYSTEM.DIHEDRAL>
0.95346

>  <SCORE.SYSTEM.REPUL>
2.10796

>  <SCORE.SYSTEM.VDW>
-26.8188

>  <SCORE.SYSTEM.norm>
-0.544907

>  <SCORE.heavy>
29

>  <SCORE.norm>
-0.86329

$$$$
OHT.pdb
  rDOCK(R)          3D
libRbt.so/2013.1/901 2013/11/27
 30 32  0  0  0  0  0  0  0  0999 V2000
   64.8818   35.7928   80.4955 C   0  0  0  0  0  0
   66.1824   35.5331   79.7862 C   0  0  0  0  0  0
   67.3775   35.7014   80.7013 C   0  0  0  0  0  0
   68.2153   36.8968   80.3798 C   0  0  0  0  0  0
   69.2549   36.8124   79.4294 C   0  0  0  0  0  0
   70.0037   37.9411   79.0948 C   0  0  0  0  0  0
   69.7501   39.1637   79.6848 C   0  0  0  0  0  0
   68.7420   39.2638   80.6139 C   0  0  0  0  0  0
   67.9824   38.1395   80.9565 C   0  0  0  0  0  0
   67.6529   34.8355   81.7206 C   0  0  0  0  0  0
   66.7875   34.6783   82.9469 C   0  0  0  0  0  0
   66.6826   35.7087   83.9325 C   0  0  0  0  0  0
   65.9126   35.5158   85.0884 C   0  0  0  0  0  0
   65.2402   34.2924   85.2701 C   0  0  0  0  0  0
   64.5145   34.1213   86.4110 O   0  0  0  0  0  0
   65.3342   33.2678   84.3010 C   0  0  0  0  0  0
   66.1033   33.4784   83.1635 C   0  0  0  0  0  0
   68.8415   33.9773   81.7263 C   0  0  0  0  0  0
   69.3337   33.4187   82.9035 C   0  0  0  0  0  0
   70.4251   32.5968   82.9247 C   0  0  0  0  0  0
   71.0753   32.2966   81.7385 C   0  0  0  0  0  0
   72.1491   31.4562   81.6663 O   0  0  0  0  0  0
   72.3403   30.6457   80.5107 C   0  0  0  0  0  0
   71.0791   29.8436   80.3369 C   0  0  0  0  0  0
   70.4554   29.4720   81.5774 N   0  0  0  0  0  0
   69.0065   29.3251   81.4316 C   0  0  0  0  0  0
   71.0004   28.1891   82.0361 C   0  0  0  0  0  0
   70.6083   32.8448   80.5313 C   0  0  0  0  0  0
   69.5145   33.6642   80.5376 C   0  0  0  0  0  0
   64.2023   33.2692   86.6443 H   0  0  0  0  0  0
  1  2  1  0  0  0
  2  3  1  0  0  0
  3  4  1  0  0  0
  3 10  1  0  0  0
  4  5  2  0  0  0
  4  9  1  0  0  0
  5  6  1  0  0  0
  6  7  2  0  0  0
  7  8  1  0  0  0
  8  9  2  0  0  0
 10 11  1  0  0  0
 10 18  1  0  0  0
 11 12  2  0  0  0
 11 17  1  0  0  0
 12 13  1  0  0  0
 13 14  2  0  0  0
 14 15  1  0  0  0
 14 16  1  0  0  0
 15 30  1  0  0  0
 16 17  2  0  0  0
 18 19  2  0  0  0
 18 29  1  0  0  0
 19 20  1  0  0  0
 20 21  2  0  0  0
 21 22  1  0  0  0
 21 28  1  0  0  0
 22 23  1  0  0  0
 23 24  1  0  0  0
 24 25  1  0  0  0
 25 26  1  0  0  0
 25 27  1  0  0  0
 28 29  2  0  0  0
M  END
>  <CHROM.0>
-1.45212802,-63.49577363,-111.71573128,179.02335185

>  <CHROM.1>
-110.45595942,-87.31478575,-66.95103730,-69.19278088,159.97468015,-167.57258831
146.92189296,-55.82293628,-34.24711563,151.28762237,68.50299958,33.99810758
81.80842228,2.28183703,0.66355360,-0.42813738

>  <FORMUL>
      OHT    C26 H29 N1 O2

>  <HET>
 OHT  A 600      29

>  <HETNAM>
     OHT 4-HYDROXYTAMOXIFEN

>  <Name>
OHT.pdb

>  <RI>
0

>  <Rbt.Current_Directory>
/home/malgorzata/Desktop/rDOCK_IFD/Wyniki/5_estrogen_receptor/IFD

>  <Rbt.Executable>
rbdock ($Id: //depot/dev/client3/rdock/2013.1/src/exe/rbdock.cxx#4 $)

>  <Rbt.Library>
libRbt.so (2013.1, Build901 2013/11/27)

>  <Rbt.Parameter_File>
/home/malgorzata/Desktop/rDock_2013.1_src/data/scripts/hard_docking.prm

>  <Rbt.Receptor>
cavity.prm

>  <SCORE>
-16.4078

>  <SCORE.INTER>
-1.49786

>  <SCORE.INTER.CONST>
1

>  <SCORE.INTER.POLAR>
0

>  <SCORE.INTER.REPUL>
0

>  <SCORE.INTER.ROT>
9

>  <SCORE.INTER.VDW>
-15.8979

>  <SCORE.INTER.norm>
-0.0516505

>  <SCORE.INTRA>
-2.74011

>  <SCORE.INTRA.DIHEDRAL>
-3.75868

>  <SCORE.INTRA.DIHEDRAL.0>
14.7815

>  <SCORE.INTRA.POLAR>
0

>  <SCORE.INTRA.POLAR.0>
0

>  <SCORE.INTRA.REPUL>
0

>  <SCORE.INTRA.REPUL.0>
0

>  <SCORE.INTRA.VDW>
-0.860767

>  <SCORE.INTRA.VDW.0>
-0.0652974

>  <SCORE.INTRA.norm>
-0.0944865

>  <SCORE.RESTR>
3.64757

>  <SCORE.RESTR.CAVITY>
3.64757

>  <SCORE.RESTR.norm>
0.125778

>  <SCORE.SYSTEM>
-15.8174

>  <SCORE.SYSTEM.CONST>
0

>  <SCORE.SYSTEM.DIHEDRAL>
0.864461

>  <SCORE.SYSTEM.REPUL>
2.10754

>  <SCORE.SYSTEM.VDW>
-26.7873

>  <SCORE.SYSTEM.norm>
-0.545426

>  <SCORE.heavy>
29

>  <SCORE.norm>
-0.565785

$$$$
OHT.pdb
  rDOCK(R)          3D
libRbt.so/2013.1/901 2013/11/27
 30 32  0  0  0  0  0  0  0  0999 V2000
   70.8731   37.5011   79.6494 C   0  0  0  0  0  0
   69.4670   37.0659   79.3401 C   0  0  0  0  0  0
   69.3402   35.5592   79.2512 C   0  0  0  0  0  0
   69.2866   35.0436   77.8492 C   0  0  0  0  0  0
   70.3910   34.3676   77.2884 C   0  0  0  0  0  0
   70.3213   33.8441   75.9969 C   0  0  0  0  0  0
   69.1761   33.9763   75.2365 C   0  0  0  0  0  0
   68.0913   34.6332   75.7666 C   0  0  0  0  0  0
   68.1479   35.1608   77.0615 C   0  0  0  0  0  0
   69.2812   34.7581   80.3555 C   0  0  0  0  0  0
   69.0547   33.2671   80.3010 C   0  0  0  0  0  0
   70.0458   32.3725   79.7892 C   0  0  0  0  0  0
   69.7891   30.9967   79.7013 C   0  0  0  0  0  0
   68.5407   30.5022   80.1239 C   0  0  0  0  0  0
   68.3076   29.1642   80.0099 O   0  0  0  0  0  0
   67.5545   31.3768   80.6342 C   0  0  0  0  0  0
   67.8282   32.7365   80.7118 C   0  0  0  0  0  0
   69.4179   35.2823   81.7177 C   0  0  0  0  0  0
   68.3144   35.7197   82.4464 C   0  0  0  0  0  0
   68.4193   36.1881   83.7258 C   0  0  0  0  0  0
   69.6629   36.2330   84.3352 C   0  0  0  0  0  0
   69.8508   36.6517   85.6212 O   0  0  0  0  0  0
   68.9037   37.5245   86.2296 C   0  0  0  0  0  0
   69.4821   37.9233   87.5603 C   0  0  0  0  0  0
   68.6826   38.8809   88.2740 N   0  0  0  0  0  0
   67.8402   38.2373   89.2831 C   0  0  0  0  0  0
   69.5583   39.8411   88.9555 C   0  0  0  0  0  0
   70.7995   35.8024   83.6290 C   0  0  0  0  0  0
   70.6672   35.3384   82.3503 C   0  0  0  0  0  0
   67.4813   28.8085   80.2721 H   0  0  0  0  0  0
  1  2  1  0  0  0
  2  3  1  0  0  0
  3  4  1  0  0  0
  3 10  1  0  0  0
  4  5  2  0  0  0
  4  9  1  0  0  0
  5  6  1  0  0  0
  6  7  2  0  0  0
  7  8  1  0  0  0
  8  9  2  0  0  0
 10 11  1  0  0  0
 10 18  1  0  0  0
 11 12  2  0  0  0
 11 17  1  0  0  0
 12 13  1  0  0  0
 13 14  2  0  0  0
 14 15  1  0  0  0
 14 16  1  0  0  0
 15 30  1  0  0  0
 16 17  2  0  0  0
 18 19  2  0  0  0
 18 29  1  0  0  0
 19 20  1  0  0  0
 20 21  2  0  0  0
 21 22  1  0  0  0
 21 28  1  0  0  0
 22 23  1  0  0  0
 23 24  1  0  0  0
 24 25  1  0  0  0
 25 26  1  0  0  0
 25 27  1  0  0  0
 28 29  2  0  0  0
M  END
>  <CHROM.0>
-1.47376306,-63.52052533,-65.15296052,10.67204740

>  <CHROM.1>
-101.87518664,106.95589136,175.38459583,69.61241261,89.28702068,-179.15708388
-24.08266017,-173.21351234,176.19962865,98.33903279,69.20648323,35.07978151
81.62375495,-1.56974869,1.36206651,1.09106045

>  <FORMUL>
      OHT    C26 H29 N1 O2

>  <HET>
 OHT  A 600      29

>  <HETNAM>
     OHT 4-HYDROXYTAMOXIFEN

>  <Name>
OHT.pdb

>  <RI>
0

>  <Rbt.Current_Directory>
/home/malgorzata/Desktop/rDOCK_IFD/Wyniki/5_estrogen_receptor/IFD

>  <Rbt.Executable>
rbdock ($Id: //depot/dev/client3/rdock/2013.1/src/exe/rbdock.cxx#4 $)

>  <Rbt.Library>
libRbt.so (2013.1, Build901 2013/11/27)

>  <Rbt.Parameter_File>
/home/malgorzata/Desktop/rDock_2013.1_src/data/scripts/hard_docking.prm

>  <Rbt.Receptor>
cavity.prm

>  <SCORE>
-25.1718

>  <SCORE.INTER>
-6.9431

>  <SCORE.INTER.CONST>
1

>  <SCORE.INTER.POLAR>
-1.0354

>  <SCORE.INTER.REPUL>
0

>  <SCORE.INTER.ROT>
9

>  <SCORE.INTER.VDW>
-17.8227

>  <SCORE.INTER.norm>
-0.239417

>  <SCORE.INTRA>
-5.94314

>  <SCORE.INTRA.DIHEDRAL>
-5.58302

>  <SCORE.INTRA.DIHEDRAL.0>
14.7815

>  <SCORE.INTRA.POLAR>
0

>  <SCORE.INTRA.POLAR.0>
0

>  <SCORE.INTRA.REPUL>
0

>  <SCORE.INTRA.REPUL.0>
0

>  <SCORE.INTRA.VDW>
-3.15163

>  <SCORE.INTRA.VDW.0>
-0.0652974

>  <SCORE.INTRA.norm>
-0.204936

>  <SCORE.RESTR>
3.35278

>  <SCORE.RESTR.CAVITY>
3.35278

>  <SCORE.RESTR.norm>
0.115613

>  <SCORE.SYSTEM>
-15.6383

>  <SCORE.SYSTEM.CONST>
0

>  <SCORE.SYSTEM.DIHEDRAL>
1.02943

>  <SCORE.SYSTEM.REPUL>
2.10798

>  <SCORE.SYSTEM.VDW>
-26.6929

>  <SCORE.SYSTEM.norm>
-0.539252

>  <SCORE.heavy>
29

>  <SCORE.norm>
-0.867992

$$$$
OHT.pdb
  rDOCK(R)          3D
libRbt.so/2013.1/901 2013/11/27
 30 32  0  0  0  0  0  0  0  0999 V2000
   64.7902   35.9942   80.5020 C   0  0  0  0  0  0
   65.8992   35.0270   80.1904 C   0  0  0  0  0  0
   67.2523   35.5461   80.6306 C   0  0  0  0  0  0
   68.3117   35.4227   79.5832 C   0  0  0  0  0  0
   68.4375   34.2409   78.8227 C   0  0  0  0  0  0
   69.3949   34.1458   77.8123 C   0  0  0  0  0  0
   70.2425   35.2000   77.5339 C   0  0  0  0  0  0
   70.1348   36.3584   78.2660 C   0  0  0  0  0  0
   69.1771   36.4669   79.2806 C   0  0  0  0  0  0
   67.4712   36.0745   81.8706 C   0  0  0  0  0  0
   68.1827   37.3832   82.1128 C   0  0  0  0  0  0
   67.5606   38.6411   81.8390 C   0  0  0  0  0  0
   68.2631   39.8406   82.0237 C   0  0  0  0  0  0
   69.5929   39.7945   82.4835 C   0  0  0  0  0  0
   70.2613   40.9724   82.6359 O   0  0  0  0  0  0
   70.2170   38.5568   82.7602 C   0  0  0  0  0  0
   69.5041   37.3799   82.5695 C   0  0  0  0  0  0
   67.0436   35.4017   83.1009 C   0  0  0  0  0  0
   67.4331   34.0967   83.3931 C   0  0  0  0  0  0
   67.0649   33.4623   84.5460 C   0  0  0  0  0  0
   66.2768   34.1303   85.4695 C   0  0  0  0  0  0
   65.8953   33.5836   86.6612 O   0  0  0  0  0  0
   66.8614   32.9485   87.4931 C   0  0  0  0  0  0
   67.8368   34.0163   87.9085 C   0  0  0  0  0  0
   68.5391   34.6170   86.8077 N   0  0  0  0  0  0
   68.8390   36.0268   87.0620 C   0  0  0  0  0  0
   69.8080   33.9123   86.5916 C   0  0  0  0  0  0
   65.8623   35.4475   85.2067 C   0  0  0  0  0  0
   66.2444   36.0592   84.0458 C   0  0  0  0  0  0
   69.8343   41.7825   82.4374 H   0  0  0  0  0  0
  1  2  1  0  0  0
  2  3  1  0  0  0
  3  4  1  0  0  0
  3 10  1  0  0  0
  4  5  2  0  0  0
  4  9  1  0  0  0
  5  6  1  0  0  0
  6  7  2  0  0  0
  7  8  1  0  0  0
  8  9  2  0  0  0
 10 11  1  0  0  0
 10 18  1  0  0  0
 11 12  2  0  0  0
 11 17  1  0  0  0
 12 13  1  0  0  0
 13 14  2  0  0  0
 14 15  1  0  0  0
 14 16  1  0  0  0
 15 30  1  0  0  0
 16 17  2  0  0  0
 18 19  2  0  0  0
 18 29  1  0  0  0
 19 20  1  0  0  0
 20 21  2  0  0  0
 21 22  1  0  0  0
 21 28  1  0  0  0
 22 23  1  0  0  0
 23 24  1  0  0  0
 24 25  1  0  0  0
 25 26  1  0  0  0
 25 27  1  0  0  0
 28 29  2  0  0  0
M  END
>  <CHROM.0>
-1.44480058,-63.48736201,102.00721053,1.68748725

>  <CHROM.1>
-132.14780199,-43.80842970,-131.61796002,73.82375742,55.24857477,0.09258248
48.08114856,63.85723869,-61.67343659,147.27519098,68.01041976,35.89053849
82.82240626,1.07907035,-1.12862323,-1.68619669

>  <FORMUL>
      OHT    C26 H29 N1 O2

>  <HET>
 OHT  A 600      29

>  <HETNAM>
     OHT 4-HYDROXYTAMOXIFEN

>  <Name>
OHT.pdb

>  <RI>
0

>  <Rbt.Current_Directory>
/home/malgorzata/Desktop/rDOCK_IFD/Wyniki/5_estrogen_receptor/IFD

>  <Rbt.Executable>
rbdock ($Id: //depot/dev/client3/rdock/2013.1/src/exe/rbdock.cxx#4 $)

>  <Rbt.Library>
libRbt.so (2013.1, Build901 2013/11/27)

>  <Rbt.Parameter_File>
/home/malgorzata/Desktop/rDock_2013.1_src/data/scripts/hard_docking.prm

>  <Rbt.Receptor>
cavity.prm

>  <SCORE>
-16.3632

>  <SCORE.INTER>
-0.301769

>  <SCORE.INTER.CONST>
1

>  <SCORE.INTER.POLAR>
0

>  <SCORE.INTER.REPUL>
0.00900222

>  <SCORE.INTER.ROT>
9

>  <SCORE.INTER.VDW>
-14.7468

>  <SCORE.INTER.norm>
-0.0104058

>  <SCORE.INTRA>
-4.68361

>  <SCORE.INTRA.DIHEDRAL>
-3.8518

>  <SCORE.INTRA.DIHEDRAL.0>
14.7815

>  <SCORE.INTRA.POLAR>
0

>  <SCORE.INTRA.POLAR.0>
0

>  <SCORE.INTRA.REPUL>
0

>  <SCORE.INTRA.REPUL.0>
0

>  <SCORE.INTRA.VDW>
-2.75771

>  <SCORE.INTRA.VDW.0>
-0.0652974

>  <SCORE.INTRA.norm>
-0.161504

>  <SCORE.RESTR>
4.45856

>  <SCORE.RESTR.CAVITY>
4.45856

>  <SCORE.RESTR.norm>
0.153743

>  <SCORE.SYSTEM>
-15.8364

>  <SCORE.SYSTEM.CONST>
0

>  <SCORE.SYSTEM.DIHEDRAL>
0.871663

>  <SCORE.SYSTEM.REPUL>
2.10739

>  <SCORE.SYSTEM.VDW>
-26.8092

>  <SCORE.SYSTEM.norm>
-0.546083

>  <SCORE.heavy>
29

>  <SCORE.norm>
-0.564249

$$$$
OHT.pdb
  rDOCK(R)          3D
libRbt.so/2013.1/901 2013/11/27
 30 32  0  0  0  0  0  0  0  0999 V2000
   68.6017   34.1372   85.0531 C   0  0  0  0  0  0
   69.2939   33.5941   83.8333 C   0  0  0  0  0  0
   68.4881   33.8176   82.5704 C   0  0  0  0  0  0
   68.2857   32.5774   81.7608 C   0  0  0  0  0  0
   69.1708   32.2505   80.7116 C   0  0  0  0  0  0
   69.0090   31.0679   79.9891 C   0  0  0  0  0  0
   67.9811   30.1923   80.2789 C   0  0  0  0  0  0
   67.1087   30.4956   81.2969 C   0  0  0  0  0  0
   67.2617   31.6776   82.0302 C   0  0  0  0  0  0
   67.9983   35.0418   82.2156 C   0  0  0  0  0  0
   66.6420   35.2550   81.5892 C   0  0  0  0  0  0
   66.4421   35.1660   80.1762 C   0  0  0  0  0  0
   65.1821   35.4204   79.6157 C   0  0  0  0  0  0
   64.1108   35.7655   80.4611 C   0  0  0  0  0  0
   62.9009   36.0277   79.8908 O   0  0  0  0  0  0
   64.2960   35.8536   81.8596 C   0  0  0  0  0  0
   65.5523   35.5990   82.3949 C   0  0  0  0  0  0
   68.7625   36.2796   82.3980 C   0  0  0  0  0  0
   69.8717   36.5762   81.6096 C   0  0  0  0  0  0
   70.5811   37.7358   81.7484 C   0  0  0  0  0  0
   70.1928   38.6619   82.7031 C   0  0  0  0  0  0
   70.8230   39.8600   82.8825 O   0  0  0  0  0  0
   72.0105   39.9277   83.6662 C   0  0  0  0  0  0
   71.6291   39.5032   85.0586 C   0  0  0  0  0  0
   72.7457   39.4023   85.9579 N   0  0  0  0  0  0
   72.3358   39.5813   87.3515 C   0  0  0  0  0  0
   73.3610   38.0763   85.8299 C   0  0  0  0  0  0
   69.0797   38.3949   83.5190 C   0  0  0  0  0  0
   68.3874   37.2274   83.3598 C   0  0  0  0  0  0
   62.1771   36.2877   80.4261 H   0  0  0  0  0  0
  1  2  1  0  0  0
  2  3  1  0  0  0
  3  4  1  0  0  0
  3 10  1  0  0  0
  4  5  2  0  0  0
  4  9  1  0  0  0
  5  6  1  0  0  0
  6  7  2  0  0  0
  7  8  1  0  0  0
  8  9  2  0  0  0
 10 11  1  0  0  0
 10 18  1  0  0  0
 11 12  2  0  0  0
 11 17  1  0  0  0
 12 13  1  0  0  0
 13 14  2  0  0  0
 14 15  1  0  0  0
 14 16  1  0  0  0
 15 30  1  0  0  0
 16 17  2  0  0  0
 18 19  2  0  0  0
 18 29  1  0  0  0
 19 20  1  0  0  0
 20 21  2  0  0  0
 21 22  1  0  0  0
 21 28  1  0  0  0
 22 23  1  0  0  0
 23 24  1  0  0  0
 24 25  1  0  0  0
 25 26  1  0  0  0
 25 27  1  0  0  0
 28 29  2  0  0  0
M  END
>  <CHROM.0>
-1.48891222,-63.53778189,-64.00856933,-178.05514122

>  <CHROM.1>
-128.24117165,-93.45676889,-141.14450779,-86.55195369,71.33744549,-177.96610399
-82.41046685,-62.41823201,174.82937484,154.66303813,68.59942718,35.78028948
82.54129582,-0.80790449,0.49328554,-2.95760548

>  <FORMUL>
      OHT    C26 H29 N1 O2

>  <HET>
 OHT  A 600      29

>  <HETNAM>
     OHT 4-HYDROXYTAMOXIFEN

>  <Name>
OHT.pdb

>  <RI>
0

>  <Rbt.Current_Directory>
/home/malgorzata/Desktop/rDOCK_IFD/Wyniki/5_estrogen_receptor/IFD

>  <Rbt.Executable>
rbdock ($Id: //depot/dev/client3/rdock/2013.1/src/exe/rbdock.cxx#4 $)

>  <Rbt.Library>
libRbt.so (2013.1, Build901 2013/11/27)

>  <Rbt.Parameter_File>
/home/malgorzata/Desktop/rDock_2013.1_src/data/scripts/hard_docking.prm

>  <Rbt.Receptor>
cavity.prm

>  <SCORE>
-16.8314

>  <SCORE.INTER>
2.07322

>  <SCORE.INTER.CONST>
1

>  <SCORE.INTER.POLAR>
0

>  <SCORE.INTER.REPUL>
0

>  <SCORE.INTER.ROT>
9

>  <SCORE.INTER.VDW>
-12.3268

>  <SCORE.INTER.norm>
0.0714905

>  <SCORE.INTRA>
-4.2982

>  <SCORE.INTRA.DIHEDRAL>
-2.53018

>  <SCORE.INTRA.DIHEDRAL.0>
14.7815

>  <SCORE.INTRA.POLAR>
0

>  <SCORE.INTRA.POLAR.0>
0

>  <SCORE.INTRA.REPUL>
0

>  <SCORE.INTRA.REPUL.0>
0

>  <SCORE.INTRA.VDW>
-3.03311

>  <SCORE.INTRA.VDW.0>
-0.0652974

>  <SCORE.INTRA.norm>
-0.148214

>  <SCORE.RESTR>
1.03251

>  <SCORE.RESTR.CAVITY>
1.03251

>  <SCORE.RESTR.norm>
0.0356039

>  <SCORE.SYSTEM>
-15.639

>  <SCORE.SYSTEM.CONST>
0

>  <SCORE.SYSTEM.DIHEDRAL>
0.870878

>  <SCORE.SYSTEM.REPUL>
2.10828

>  <SCORE.SYSTEM.VDW>
-26.6158

>  <SCORE.SYSTEM.norm>
-0.539275

>  <SCORE.heavy>
29

>  <SCORE.norm>
-0.580395

$$$$
OHT.pdb
  rDOCK(R)          3D
libRbt.so/2013.1/901 2013/11/27
 30 32  0  0  0  0  0  0  0  0999 V2000
   65.9719   34.8200   68.2483 C   0  0  0  0  0  0
   67.1846   33.9647   68.4933 C   0  0  0  0  0  0
   67.4952   33.8206   69.9687 C   0  0  0  0  0  0
   67.0372   32.5236   70.5541 C   0  0  0  0  0  0
   65.6678   32.1837   70.5670 C   0  0  0  0  0  0
   65.2472   30.9517   71.0691 C   0  0  0  0  0  0
   66.1559   30.0387   71.5671 C   0  0  0  0  0  0
   67.4938   30.3540   71.5636 C   0  0  0  0  0  0
   67.9284   31.5856   71.0607 C   0  0  0  0  0  0
   68.1340   34.7914   70.6857 C   0  0  0  0  0  0
   68.7199   36.0401   70.0736 C   0  0  0  0  0  0
   67.9108   37.1759   69.7582 C   0  0  0  0  0  0
   68.4718   38.3036   69.1416 C   0  0  0  0  0  0
   69.8456   38.3069   68.8348 C   0  0  0  0  0  0
   70.3635   39.4062   68.2175 O   0  0  0  0  0  0
   70.6558   37.1909   69.1446 C   0  0  0  0  0  0
   70.0804   36.0832   69.7543 C   0  0  0  0  0  0
   68.3272   34.7016   72.1362 C   0  0  0  0  0  0
   69.5865   34.4943   72.6940 C   0  0  0  0  0  0
   69.7895   34.4326   74.0439 C   0  0  0  0  0  0
   68.7124   34.5828   74.9025 C   0  0  0  0  0  0
   68.8330   34.5712   76.2626 O   0  0  0  0  0  0
   68.2103   35.5898   77.0396 C   0  0  0  0  0  0
   68.5262   35.2837   78.4787 C   0  0  0  0  0  0
   69.9322   35.1511   78.7458 N   0  0  0  0  0  0
   70.3265   35.8884   79.9470 C   0  0  0  0  0  0
   70.2619   33.7359   78.9501 C   0  0  0  0  0  0
   67.4261   34.7907   74.3750 C   0  0  0  0  0  0
   67.2502   34.8482   73.0209 C   0  0  0  0  0  0
   71.2668   39.4219   67.9688 H   0  0  0  0  0  0
  1  2  1  0  0  0
  2  3  1  0  0  0
  3  4  1  0  0  0
  3 10  1  0  0  0
  4  5  2  0  0  0
  4  9  1  0  0  0
  5  6  1  0  0  0
  6  7  2  0  0  0
  7  8  1  0  0  0
  8  9  2  0  0  0
 10 11  1  0  0  0
 10 18  1  0  0  0
 11 12  2  0  0  0
 11 17  1  0  0  0
 12 13  1  0  0  0
 13 14  2  0  0  0
 14 15  1  0  0  0
 14 16  1  0  0  0
 15 30  1  0  0  0
 16 17  2  0  0  0
 18 19  2  0  0  0
 18 29  1  0  0  0
 19 20  1  0  0  0
 20 21  2  0  0  0
 21 22  1  0  0  0
 21 28  1  0  0  0
 22 23  1  0  0  0
 23 24  1  0  0  0
 24 25  1  0  0  0
 25 26  1  0  0  0
 25 27  1  0  0  0
 28 29  2  0  0  0
M  END
>  <CHROM.0>
-1.51355125,-63.56571728,-65.18460725,5.96963750

>  <CHROM.1>
100.76758156,-61.84613110,-6.37034549,81.09312478,109.98589417,-177.43272416
131.68221449,179.67420815,54.75905655,133.94466404,68.36306246,34.72219601
72.47543521,1.85612361,-1.05337247,-1.24363891

>  <FORMUL>
      OHT    C26 H29 N1 O2

>  <HET>
 OHT  A 600      29

>  <HETNAM>
     OHT 4-HYDROXYTAMOXIFEN

>  <Name>
OHT.pdb

>  <RI>
0

>  <Rbt.Current_Directory>
/home/malgorzata/Desktop/rDOCK_IFD/Wyniki/5_estrogen_receptor/IFD

>  <Rbt.Executable>
rbdock ($Id: //depot/dev/client3/rdock/2013.1/src/exe/rbdock.cxx#4 $)

>  <Rbt.Library>
libRbt.so (2013.1, Build901 2013/11/27)

>  <Rbt.Parameter_File>
/home/malgorzata/Desktop/rDock_2013.1_src/data/scripts/hard_docking.prm

>  <Rbt.Receptor>
cavity.prm

>  <SCORE>
-35.8093

>  <SCORE.INTER>
-15.4179

>  <SCORE.INTER.CONST>
1

>  <SCORE.INTER.POLAR>
-0.848528

>  <SCORE.INTER.REPUL>
0

>  <SCORE.INTER.ROT>
9

>  <SCORE.INTER.VDW>
-26.9329

>  <SCORE.INTER.norm>
-0.531653

>  <SCORE.INTRA>
-4.74225

>  <SCORE.INTRA.DIHEDRAL>
-2.84273

>  <SCORE.INTRA.DIHEDRAL.0>
14.7815

>  <SCORE.INTRA.POLAR>
0

>  <SCORE.INTRA.POLAR.0>
0

>  <SCORE.INTRA.REPUL>
0

>  <SCORE.INTRA.REPUL.0>
0

>  <SCORE.INTRA.VDW>
-3.32089

>  <SCORE.INTRA.VDW.0>
-0.0652974

>  <SCORE.INTRA.norm>
-0.163526

>  <SCORE.RESTR>
0

>  <SCORE.RESTR.CAVITY>
0

>  <SCORE.RESTR.norm>
0

>  <SCORE.SYSTEM>
-15.6491

>  <SCORE.SYSTEM.CONST>
0

>  <SCORE.SYSTEM.DIHEDRAL>
0.918151

>  <SCORE.SYSTEM.REPUL>
2.10877

>  <SCORE.SYSTEM.VDW>
-26.652

>  <SCORE.SYSTEM.norm>
-0.539624

>  <SCORE.heavy>
29

>  <SCORE.norm>
-1.2348

$$$$
