OHT.pdb
  rDOCK(R)          3D
libRbt.so/2013.1/901 2013/11/27
 30 32  0  0  0  0  0  0  0  0999 V2000
   70.4875   33.6254   75.1681 C   0  0  0  0  0  0
   70.3412   33.3941   73.6892 C   0  0  0  0  0  0
   69.3798   34.3736   73.0486 C   0  0  0  0  0  0
   70.0551   35.4410   72.2492 C   0  0  0  0  0  0
   70.6717   36.5374   72.8885 C   0  0  0  0  0  0
   71.3438   37.5070   72.1436 C   0  0  0  0  0  0
   71.4199   37.4206   70.7673 C   0  0  0  0  0  0
   70.8236   36.3599   70.1280 C   0  0  0  0  0  0
   70.1483   35.3798   70.8641 C   0  0  0  0  0  0
   68.0254   34.2798   73.1953 C   0  0  0  0  0  0
   67.0540   35.3337   72.7231 C   0  0  0  0  0  0
   67.2048   36.7106   73.0775 C   0  0  0  0  0  0
   66.2584   37.6613   72.6687 C   0  0  0  0  0  0
   65.1534   37.2453   71.9022 C   0  0  0  0  0  0
   64.2368   38.1844   71.5340 O   0  0  0  0  0  0
   64.9956   35.8873   71.5434 C   0  0  0  0  0  0
   65.9436   34.9611   71.9595 C   0  0  0  0  0  0
   67.3807   33.1372   73.8495 C   0  0  0  0  0  0
   66.9816   33.1886   75.1830 C   0  0  0  0  0  0
   66.3571   32.1428   75.8023 C   0  0  0  0  0  0
   66.1024   30.9823   75.0893 C   0  0  0  0  0  0
   65.4514   29.9059   75.6206 O   0  0  0  0  0  0
   64.7209   30.0462   76.8354 C   0  0  0  0  0  0
   63.9656   28.7596   77.0316 C   0  0  0  0  0  0
   63.0338   28.4702   75.9763 N   0  0  0  0  0  0
   62.6609   27.0550   75.9569 C   0  0  0  0  0  0
   61.8129   29.2612   76.1685 C   0  0  0  0  0  0
   66.4938   30.8935   73.7421 C   0  0  0  0  0  0
   67.1169   31.9540   73.1463 C   0  0  0  0  0  0
   63.3330   37.9506   71.4535 H   0  0  0  0  0  0
  1  2  1  0  0  0
  2  3  1  0  0  0
  3  4  1  0  0  0
  3 10  1  0  0  0
  4  5  2  0  0  0
  4  9  1  0  0  0
  5  6  1  0  0  0
  6  7  2  0  0  0
  7  8  1  0  0  0
  8  9  2  0  0  0
 10 11  1  0  0  0
 10 18  1  0  0  0
 11 12  2  0  0  0
 11 17  1  0  0  0
 12 13  1  0  0  0
 13 14  2  0  0  0
 14 15  1  0  0  0
 14 16  1  0  0  0
 15 30  1  0  0  0
 16 17  2  0  0  0
 18 19  2  0  0  0
 18 29  1  0  0  0
 19 20  1  0  0  0
 20 21  2  0  0  0
 21 22  1  0  0  0
 21 28  1  0  0  0
 22 23  1  0  0  0
 23 24  1  0  0  0
 24 25  1  0  0  0
 25 26  1  0  0  0
 25 27  1  0  0  0
 28 29  2  0  0  0
M  END
>  <CHROM.0>
-102.34651824,-1.87497717,59.05239010,-56.91793806

>  <CHROM.1>
105.06501986,-77.46044876,171.75988455,-51.67568464,98.20946043,-147.19761794
15.13781964,171.63928354,-60.82975297,160.96289296,66.99676217,33.57267324
73.64190751,-1.00407420,-0.01661664,2.63686386

>  <FORMUL>
      OHT    C26 H29 N1 O2

>  <HET>
 OHT  A 600      29

>  <HETNAM>
     OHT 4-HYDROXYTAMOXIFEN

>  <Name>
OHT.pdb

>  <RI>
2.84527e+07

>  <Rbt.Current_Directory>
/home/malgorzata/Desktop/rDOCK_IFD/Wyniki/5_estrogen_receptor/IFD

>  <Rbt.Executable>
rbdock ($Id: //depot/dev/client3/rdock/2013.1/src/exe/rbdock.cxx#4 $)

>  <Rbt.Library>
libRbt.so (2013.1, Build901 2013/11/27)

>  <Rbt.Parameter_File>
/home/malgorzata/Desktop/rDock_2013.1_src/data/scripts/dock.prm

>  <Rbt.Receptor>
cavity.prm

>  <SCORE>
-29.4443

>  <SCORE.INTER>
-9.02303

>  <SCORE.INTER.CONST>
1

>  <SCORE.INTER.POLAR>
-0.619845

>  <SCORE.INTER.REPUL>
0

>  <SCORE.INTER.ROT>
9

>  <SCORE.INTER.VDW>
-21.3156

>  <SCORE.INTER.norm>
-0.311139

>  <SCORE.INTRA>
-5.31565

>  <SCORE.INTRA.DIHEDRAL>
-5.84304

>  <SCORE.INTRA.DIHEDRAL.0>
14.7815

>  <SCORE.INTRA.POLAR>
0

>  <SCORE.INTRA.POLAR.0>
0

>  <SCORE.INTRA.REPUL>
0

>  <SCORE.INTRA.REPUL.0>
0

>  <SCORE.INTRA.VDW>
-2.39413

>  <SCORE.INTRA.VDW.0>
-0.0652974

>  <SCORE.INTRA.norm>
-0.183298

>  <SCORE.RESTR>
0

>  <SCORE.RESTR.CAVITY>
0

>  <SCORE.RESTR.norm>
0

>  <SCORE.SYSTEM>
-15.1056

>  <SCORE.SYSTEM.CONST>
0

>  <SCORE.SYSTEM.DIHEDRAL>
1.2116

>  <SCORE.SYSTEM.POLAR>
-1.51178

>  <SCORE.SYSTEM.VDW>
-10.5714

>  <SCORE.SYSTEM.norm>
-0.520884

>  <SCORE.heavy>
29

>  <SCORE.norm>
-1.01532

$$$$
OHT.pdb
  rDOCK(R)          3D
libRbt.so/2013.1/901 2013/11/27
 30 32  0  0  0  0  0  0  0  0999 V2000
   64.1901   31.7425   75.2577 C   0  0  0  0  0  0
   65.0764   32.9001   75.6276 C   0  0  0  0  0  0
   66.4956   32.4626   75.9251 C   0  0  0  0  0  0
   66.7756   32.2862   77.3828 C   0  0  0  0  0  0
   66.7183   31.0076   77.9770 C   0  0  0  0  0  0
   67.0278   30.8379   79.3269 C   0  0  0  0  0  0
   67.3935   31.9126   80.1134 C   0  0  0  0  0  0
   67.4532   33.1655   79.5513 C   0  0  0  0  0  0
   67.1471   33.3484   78.1980 C   0  0  0  0  0  0
   67.4229   32.2526   74.9450 C   0  0  0  0  0  0
   67.5947   30.9417   74.2175 C   0  0  0  0  0  0
   66.5467   30.3758   73.4265 C   0  0  0  0  0  0
   66.7146   29.1306   72.8037 C   0  0  0  0  0  0
   67.9305   28.4399   72.9650 C   0  0  0  0  0  0
   68.0623   27.2225   72.3665 O   0  0  0  0  0  0
   68.9746   28.9910   73.7422 C   0  0  0  0  0  0
   68.7878   30.2252   74.3519 C   0  0  0  0  0  0
   68.3628   33.2917   74.5135 C   0  0  0  0  0  0
   68.3771   33.7656   73.2038 C   0  0  0  0  0  0
   69.2288   34.7507   72.7898 C   0  0  0  0  0  0
   70.1151   35.3106   73.6959 C   0  0  0  0  0  0
   70.9730   36.3231   73.3745 O   0  0  0  0  0  0
   70.8961   36.9394   72.0926 C   0  0  0  0  0  0
   71.8041   38.1384   72.1390 C   0  0  0  0  0  0
   71.3851   39.1444   73.0761 N   0  0  0  0  0  0
   72.5278   39.7874   73.7264 C   0  0  0  0  0  0
   70.6172   40.1796   72.3746 C   0  0  0  0  0  0
   70.1308   34.8551   75.0256 C   0  0  0  0  0  0
   69.2686   33.8684   75.4141 C   0  0  0  0  0  0
   67.3044   26.6962   72.2032 H   0  0  0  0  0  0
  1  2  1  0  0  0
  2  3  1  0  0  0
  3  4  1  0  0  0
  3 10  1  0  0  0
  4  5  2  0  0  0
  4  9  1  0  0  0
  5  6  1  0  0  0
  6  7  2  0  0  0
  7  8  1  0  0  0
  8  9  2  0  0  0
 10 11  1  0  0  0
 10 18  1  0  0  0
 11 12  2  0  0  0
 11 17  1  0  0  0
 12 13  1  0  0  0
 13 14  2  0  0  0
 14 15  1  0  0  0
 14 16  1  0  0  0
 15 30  1  0  0  0
 16 17  2  0  0  0
 18 19  2  0  0  0
 18 29  1  0  0  0
 19 20  1  0  0  0
 20 21  2  0  0  0
 21 22  1  0  0  0
 21 28  1  0  0  0
 22 23  1  0  0  0
 23 24  1  0  0  0
 24 25  1  0  0  0
 25 26  1  0  0  0
 25 27  1  0  0  0
 28 29  2  0  0  0
M  END
>  <CHROM.0>
-104.47676749,-2.18492989,173.61188069,-61.77178565

>  <CHROM.1>
-97.29288720,97.42123304,-86.90601552,61.81183784,-118.95616002,-27.28785732
6.00303998,171.06337784,-64.16784529,143.76877325,68.45603658,33.30221217
74.74856131,2.74735333,-1.05712544,-2.33113286

>  <FORMUL>
      OHT    C26 H29 N1 O2

>  <HET>
 OHT  A 600      29

>  <HETNAM>
     OHT 4-HYDROXYTAMOXIFEN

>  <Name>
OHT.pdb

>  <RI>
2.84527e+07

>  <Rbt.Current_Directory>
/home/malgorzata/Desktop/rDOCK_IFD/Wyniki/5_estrogen_receptor/IFD

>  <Rbt.Executable>
rbdock ($Id: //depot/dev/client3/rdock/2013.1/src/exe/rbdock.cxx#4 $)

>  <Rbt.Library>
libRbt.so (2013.1, Build901 2013/11/27)

>  <Rbt.Parameter_File>
/home/malgorzata/Desktop/rDock_2013.1_src/data/scripts/dock.prm

>  <Rbt.Receptor>
cavity.prm

>  <SCORE>
-26.0915

>  <SCORE.INTER>
-7.34282

>  <SCORE.INTER.CONST>
1

>  <SCORE.INTER.POLAR>
-0.887575

>  <SCORE.INTER.REPUL>
0

>  <SCORE.INTER.ROT>
9

>  <SCORE.INTER.VDW>
-18.7251

>  <SCORE.INTER.norm>
-0.253201

>  <SCORE.INTRA>
-5.41882

>  <SCORE.INTRA.DIHEDRAL>
-4.64142

>  <SCORE.INTRA.DIHEDRAL.0>
14.7815

>  <SCORE.INTRA.POLAR>
0

>  <SCORE.INTRA.POLAR.0>
0

>  <SCORE.INTRA.REPUL>
0

>  <SCORE.INTRA.REPUL.0>
0

>  <SCORE.INTRA.VDW>
-3.09811

>  <SCORE.INTRA.VDW.0>
-0.0652974

>  <SCORE.INTRA.norm>
-0.186856

>  <SCORE.RESTR>
0

>  <SCORE.RESTR.CAVITY>
0

>  <SCORE.RESTR.norm>
0

>  <SCORE.SYSTEM>
-13.3298

>  <SCORE.SYSTEM.CONST>
0

>  <SCORE.SYSTEM.DIHEDRAL>
1.40329

>  <SCORE.SYSTEM.POLAR>
-1.19138

>  <SCORE.SYSTEM.VDW>
-9.98075

>  <SCORE.SYSTEM.norm>
-0.459649

>  <SCORE.heavy>
29

>  <SCORE.norm>
-0.899706

$$$$
OHT.pdb
  rDOCK(R)          3D
libRbt.so/2013.1/901 2013/11/27
 30 32  0  0  0  0  0  0  0  0999 V2000
   64.6475   29.4034   74.0698 C   0  0  0  0  0  0
   65.2068   30.1692   72.9023 C   0  0  0  0  0  0
   66.5869   30.7236   73.1892 C   0  0  0  0  0  0
   66.6220   32.2133   73.3075 C   0  0  0  0  0  0
   66.1386   33.0297   72.2631 C   0  0  0  0  0  0
   66.1269   34.4186   72.3956 C   0  0  0  0  0  0
   66.5890   35.0275   73.5457 C   0  0  0  0  0  0
   67.0648   34.2474   74.5727 C   0  0  0  0  0  0
   67.0798   32.8532   74.4528 C   0  0  0  0  0  0
   67.6877   29.9270   73.3246 C   0  0  0  0  0  0
   68.2198   29.0355   72.2294 C   0  0  0  0  0  0
   69.3749   29.3890   71.4645 C   0  0  0  0  0  0
   69.8172   28.5675   70.4176 C   0  0  0  0  0  0
   69.1101   27.3857   70.1256 C   0  0  0  0  0  0
   69.5476   26.6142   69.0907 O   0  0  0  0  0  0
   67.9687   27.0247   70.8771 C   0  0  0  0  0  0
   67.5462   27.8529   71.9093 C   0  0  0  0  0  0
   68.4566   29.8503   74.5704 C   0  0  0  0  0  0
   68.1709   28.9003   75.5480 C   0  0  0  0  0  0
   68.8922   28.7978   76.7040 C   0  0  0  0  0  0
   69.9521   29.6626   76.9248 C   0  0  0  0  0  0
   70.7460   29.6045   78.0343 O   0  0  0  0  0  0
   71.7351   30.6058   78.2531 C   0  0  0  0  0  0
   71.0020   31.8408   78.7023 C   0  0  0  0  0  0
   70.3051   31.6776   79.9486 N   0  0  0  0  0  0
   70.8169   32.5842   80.9773 C   0  0  0  0  0  0
   68.8792   31.9652   79.7552 C   0  0  0  0  0  0
   70.2677   30.6362   75.9612 C   0  0  0  0  0  0
   69.5303   30.7177   74.8135 C   0  0  0  0  0  0
   69.1057   25.8144   68.8832 H   0  0  0  0  0  0
  1  2  1  0  0  0
  2  3  1  0  0  0
  3  4  1  0  0  0
  3 10  1  0  0  0
  4  5  2  0  0  0
  4  9  1  0  0  0
  5  6  1  0  0  0
  6  7  2  0  0  0
  7  8  1  0  0  0
  8  9  2  0  0  0
 10 11  1  0  0  0
 10 18  1  0  0  0
 11 12  2  0  0  0
 11 17  1  0  0  0
 12 13  1  0  0  0
 13 14  2  0  0  0
 14 15  1  0  0  0
 14 16  1  0  0  0
 15 30  1  0  0  0
 16 17  2  0  0  0
 18 19  2  0  0  0
 18 29  1  0  0  0
 19 20  1  0  0  0
 20 21  2  0  0  0
 21 22  1  0  0  0
 21 28  1  0  0  0
 22 23  1  0  0  0
 23 24  1  0  0  0
 24 25  1  0  0  0
 25 26  1  0  0  0
 25 27  1  0  0  0
 28 29  2  0  0  0
M  END
>  <CHROM.0>
-175.19339349,-2.22986181,59.20472483,-147.79766769

>  <CHROM.1>
-110.93238477,-55.60156084,61.55657802,103.13800986,91.60435454,178.91311390
-174.01087058,74.82688237,63.06662199,117.98488162,68.45145002,30.48864946
74.56803113,1.98970452,0.85065981,-2.23210349

>  <FORMUL>
      OHT    C26 H29 N1 O2

>  <HET>
 OHT  A 600      29

>  <HETNAM>
     OHT 4-HYDROXYTAMOXIFEN

>  <Name>
OHT.pdb

>  <RI>
2.84527e+07

>  <Rbt.Current_Directory>
/home/malgorzata/Desktop/rDOCK_IFD/Wyniki/5_estrogen_receptor/IFD

>  <Rbt.Executable>
rbdock ($Id: //depot/dev/client3/rdock/2013.1/src/exe/rbdock.cxx#4 $)

>  <Rbt.Library>
libRbt.so (2013.1, Build901 2013/11/27)

>  <Rbt.Parameter_File>
/home/malgorzata/Desktop/rDock_2013.1_src/data/scripts/dock.prm

>  <Rbt.Receptor>
cavity.prm

>  <SCORE>
-26.7372

>  <SCORE.INTER>
-7.39614

>  <SCORE.INTER.CONST>
1

>  <SCORE.INTER.POLAR>
0

>  <SCORE.INTER.REPUL>
0

>  <SCORE.INTER.ROT>
9

>  <SCORE.INTER.VDW>
-21.7961

>  <SCORE.INTER.norm>
-0.255039

>  <SCORE.INTRA>
-4.1079

>  <SCORE.INTRA.DIHEDRAL>
-5.19086

>  <SCORE.INTRA.DIHEDRAL.0>
14.7815

>  <SCORE.INTRA.POLAR>
0

>  <SCORE.INTRA.POLAR.0>
0

>  <SCORE.INTRA.REPUL>
0

>  <SCORE.INTRA.REPUL.0>
0

>  <SCORE.INTRA.VDW>
-1.51247

>  <SCORE.INTRA.VDW.0>
-0.0652974

>  <SCORE.INTRA.norm>
-0.141652

>  <SCORE.RESTR>
0

>  <SCORE.RESTR.CAVITY>
0

>  <SCORE.RESTR.norm>
0

>  <SCORE.SYSTEM>
-15.2332

>  <SCORE.SYSTEM.CONST>
0

>  <SCORE.SYSTEM.DIHEDRAL>
1.2207

>  <SCORE.SYSTEM.POLAR>
-1.49021

>  <SCORE.SYSTEM.VDW>
-10.7768

>  <SCORE.SYSTEM.norm>
-0.525282

>  <SCORE.heavy>
29

>  <SCORE.norm>
-0.921973

$$$$
OHT.pdb
  rDOCK(R)          3D
libRbt.so/2013.1/901 2013/11/27
 30 32  0  0  0  0  0  0  0  0999 V2000
   63.3760   32.3363   74.6997 C   0  0  0  0  0  0
   63.9568   32.6052   73.3386 C   0  0  0  0  0  0
   65.3633   32.0611   73.1984 C   0  0  0  0  0  0
   65.4214   30.7014   72.5799 C   0  0  0  0  0  0
   66.3314   29.7332   73.0548 C   0  0  0  0  0  0
   66.3503   28.4492   72.5091 C   0  0  0  0  0  0
   65.4851   28.0955   71.4925 C   0  0  0  0  0  0
   64.5929   29.0267   71.0168 C   0  0  0  0  0  0
   64.5627   30.3172   71.5573 C   0  0  0  0  0  0
   66.4665   32.7567   73.6029 C   0  0  0  0  0  0
   66.9987   32.7414   75.0150 C   0  0  0  0  0  0
   68.3362   32.3324   75.3119 C   0  0  0  0  0  0
   68.7886   32.2775   76.6381 C   0  0  0  0  0  0
   67.9095   32.6307   77.6793 C   0  0  0  0  0  0
   68.3661   32.5500   78.9609 O   0  0  0  0  0  0
   66.5861   33.0394   77.3974 C   0  0  0  0  0  0
   66.1571   33.0858   76.0770 C   0  0  0  0  0  0
   67.2383   33.6089   72.6933 C   0  0  0  0  0  0
   66.6735   34.7266   72.0836 C   0  0  0  0  0  0
   67.3840   35.5463   71.2528 C   0  0  0  0  0  0
   68.7179   35.2695   70.9998 C   0  0  0  0  0  0
   69.5087   36.0565   70.2124 O   0  0  0  0  0  0
   70.6041   36.7630   70.7868 C   0  0  0  0  0  0
   70.0137   37.9013   71.5741 C   0  0  0  0  0  0
   70.9871   38.8580   72.0247 N   0  0  0  0  0  0
   70.4122   40.1985   72.1461 C   0  0  0  0  0  0
   71.4952   38.4583   73.3420 C   0  0  0  0  0  0
   69.3207   34.1480   71.5955 C   0  0  0  0  0  0
   68.5876   33.3441   72.4227 C   0  0  0  0  0  0
   69.2535   32.2991   79.1272 H   0  0  0  0  0  0
  1  2  1  0  0  0
  2  3  1  0  0  0
  3  4  1  0  0  0
  3 10  1  0  0  0
  4  5  2  0  0  0
  4  9  1  0  0  0
  5  6  1  0  0  0
  6  7  2  0  0  0
  7  8  1  0  0  0
  8  9  2  0  0  0
 10 11  1  0  0  0
 10 18  1  0  0  0
 11 12  2  0  0  0
 11 17  1  0  0  0
 12 13  1  0  0  0
 13 14  2  0  0  0
 14 15  1  0  0  0
 14 16  1  0  0  0
 15 30  1  0  0  0
 16 17  2  0  0  0
 18 19  2  0  0  0
 18 29  1  0  0  0
 19 20  1  0  0  0
 20 21  2  0  0  0
 21 22  1  0  0  0
 21 28  1  0  0  0
 22 23  1  0  0  0
 23 24  1  0  0  0
 24 25  1  0  0  0
 25 26  1  0  0  0
 25 27  1  0  0  0
 28 29  2  0  0  0
M  END
>  <CHROM.0>
-84.90010970,-2.13610327,172.98292053,-143.78846960

>  <CHROM.1>
95.08108362,-140.69094545,85.39818111,122.37727374,62.59024412,2.47532417
113.96602979,-73.58931136,-169.45956565,150.67647342,67.50789660,33.53831017
73.30118242,-2.81060591,-0.97107151,-1.41066246

>  <FORMUL>
      OHT    C26 H29 N1 O2

>  <HET>
 OHT  A 600      29

>  <HETNAM>
     OHT 4-HYDROXYTAMOXIFEN

>  <Name>
OHT.pdb

>  <RI>
2.84527e+07

>  <Rbt.Current_Directory>
/home/malgorzata/Desktop/rDOCK_IFD/Wyniki/5_estrogen_receptor/IFD

>  <Rbt.Executable>
rbdock ($Id: //depot/dev/client3/rdock/2013.1/src/exe/rbdock.cxx#4 $)

>  <Rbt.Library>
libRbt.so (2013.1, Build901 2013/11/27)

>  <Rbt.Parameter_File>
/home/malgorzata/Desktop/rDock_2013.1_src/data/scripts/dock.prm

>  <Rbt.Receptor>
cavity.prm

>  <SCORE>
-23.4318

>  <SCORE.INTER>
-7.49772

>  <SCORE.INTER.CONST>
1

>  <SCORE.INTER.POLAR>
0

>  <SCORE.INTER.REPUL>
0

>  <SCORE.INTER.ROT>
9

>  <SCORE.INTER.VDW>
-21.8977

>  <SCORE.INTER.norm>
-0.258542

>  <SCORE.INTRA>
-2.58798

>  <SCORE.INTRA.DIHEDRAL>
-1.2585

>  <SCORE.INTRA.DIHEDRAL.0>
14.7815

>  <SCORE.INTRA.POLAR>
0

>  <SCORE.INTRA.POLAR.0>
0

>  <SCORE.INTRA.REPUL>
0

>  <SCORE.INTRA.REPUL.0>
0

>  <SCORE.INTRA.VDW>
-1.95873

>  <SCORE.INTRA.VDW.0>
-0.0652974

>  <SCORE.INTRA.norm>
-0.0892406

>  <SCORE.RESTR>
0

>  <SCORE.RESTR.CAVITY>
0

>  <SCORE.RESTR.norm>
0

>  <SCORE.SYSTEM>
-13.3461

>  <SCORE.SYSTEM.CONST>
0

>  <SCORE.SYSTEM.DIHEDRAL>
1.45717

>  <SCORE.SYSTEM.POLAR>
-1.19456

>  <SCORE.SYSTEM.VDW>
-10.0131

>  <SCORE.SYSTEM.norm>
-0.460209

>  <SCORE.heavy>
29

>  <SCORE.norm>
-0.807992

$$$$
OHT.pdb
  rDOCK(R)          3D
libRbt.so/2013.1/901 2013/11/27
 30 32  0  0  0  0  0  0  0  0999 V2000
   67.1465   29.6620   74.0431 C   0  0  0  0  0  0
   67.3500   30.4763   72.7950 C   0  0  0  0  0  0
   68.7372   31.0803   72.7250 C   0  0  0  0  0  0
   69.6380   30.4016   71.7440 C   0  0  0  0  0  0
   70.2776   31.1387   70.7248 C   0  0  0  0  0  0
   71.1561   30.5119   69.8405 C   0  0  0  0  0  0
   71.4188   29.1596   69.9374 C   0  0  0  0  0  0
   70.8033   28.4259   70.9235 C   0  0  0  0  0  0
   69.9217   29.0433   71.8179 C   0  0  0  0  0  0
   69.1172   32.1446   73.4914 C   0  0  0  0  0  0
   69.0748   32.1518   74.9999 C   0  0  0  0  0  0
   67.9400   32.6400   75.7196 C   0  0  0  0  0  0
   67.9478   32.6840   77.1212 C   0  0  0  0  0  0
   69.0888   32.2406   77.8163 C   0  0  0  0  0  0
   69.0802   32.3120   79.1774 O   0  0  0  0  0  0
   70.2154   31.7532   77.1154 C   0  0  0  0  0  0
   70.1879   31.7191   75.7270 C   0  0  0  0  0  0
   69.5932   33.4039   72.9109 C   0  0  0  0  0  0
   70.8501   33.9203   73.2167 C   0  0  0  0  0  0
   71.3204   35.0792   72.6665 C   0  0  0  0  0  0
   70.5299   35.7765   71.7671 C   0  0  0  0  0  0
   70.9373   36.9214   71.1445 O   0  0  0  0  0  0
   72.2544   37.4182   71.3622 C   0  0  0  0  0  0
   72.3734   38.6833   70.5561 C   0  0  0  0  0  0
   73.6690   39.3001   70.6372 N   0  0  0  0  0  0
   74.6342   38.6500   69.7496 C   0  0  0  0  0  0
   73.5667   40.7106   70.2455 C   0  0  0  0  0  0
   69.2543   35.2867   71.4371 C   0  0  0  0  0  0
   68.8075   34.1250   72.0017 C   0  0  0  0  0  0
   69.8601   32.1236   79.6614 H   0  0  0  0  0  0
  1  2  1  0  0  0
  2  3  1  0  0  0
  3  4  1  0  0  0
  3 10  1  0  0  0
  4  5  2  0  0  0
  4  9  1  0  0  0
  5  6  1  0  0  0
  6  7  2  0  0  0
  7  8  1  0  0  0
  8  9  2  0  0  0
 10 11  1  0  0  0
 10 18  1  0  0  0
 11 12  2  0  0  0
 11 17  1  0  0  0
 12 13  1  0  0  0
 13 14  2  0  0  0
 14 15  1  0  0  0
 14 16  1  0  0  0
 15 30  1  0  0  0
 16 17  2  0  0  0
 18 19  2  0  0  0
 18 29  1  0  0  0
 19 20  1  0  0  0
 20 21  2  0  0  0
 21 22  1  0  0  0
 21 28  1  0  0  0
 22 23  1  0  0  0
 23 24  1  0  0  0
 24 25  1  0  0  0
 25 26  1  0  0  0
 25 27  1  0  0  0
 28 29  2  0  0  0
M  END
>  <CHROM.0>
164.90298359,-1.70456893,-56.44274446,-179.20752941

>  <CHROM.1>
105.63906463,125.02509622,57.99011246,-92.78228414,-122.08351299,-172.54661171
2.89864089,-179.27196341,-178.42586416,80.18988163,70.27758182,33.44078905
72.87674611,-2.85464428,1.12703083,0.76521946

>  <FORMUL>
      OHT    C26 H29 N1 O2

>  <HET>
 OHT  A 600      29

>  <HETNAM>
     OHT 4-HYDROXYTAMOXIFEN

>  <Name>
OHT.pdb

>  <RI>
2.84527e+07

>  <Rbt.Current_Directory>
/home/malgorzata/Desktop/rDOCK_IFD/Wyniki/5_estrogen_receptor/IFD

>  <Rbt.Executable>
rbdock ($Id: //depot/dev/client3/rdock/2013.1/src/exe/rbdock.cxx#4 $)

>  <Rbt.Library>
libRbt.so (2013.1, Build901 2013/11/27)

>  <Rbt.Parameter_File>
/home/malgorzata/Desktop/rDock_2013.1_src/data/scripts/dock.prm

>  <Rbt.Receptor>
cavity.prm

>  <SCORE>
-25.0276

>  <SCORE.INTER>
-5.61522

>  <SCORE.INTER.CONST>
1

>  <SCORE.INTER.POLAR>
0

>  <SCORE.INTER.REPUL>
0

>  <SCORE.INTER.ROT>
9

>  <SCORE.INTER.VDW>
-20.0152

>  <SCORE.INTER.norm>
-0.193628

>  <SCORE.INTRA>
-6.11553

>  <SCORE.INTRA.DIHEDRAL>
-7.79734

>  <SCORE.INTRA.DIHEDRAL.0>
14.7815

>  <SCORE.INTRA.POLAR>
0

>  <SCORE.INTRA.POLAR.0>
0

>  <SCORE.INTRA.REPUL>
0

>  <SCORE.INTRA.REPUL.0>
0

>  <SCORE.INTRA.VDW>
-2.21686

>  <SCORE.INTRA.VDW.0>
-0.0652974

>  <SCORE.INTRA.norm>
-0.21088

>  <SCORE.RESTR>
0

>  <SCORE.RESTR.CAVITY>
0

>  <SCORE.RESTR.norm>
0

>  <SCORE.SYSTEM>
-13.2968

>  <SCORE.SYSTEM.CONST>
0

>  <SCORE.SYSTEM.DIHEDRAL>
1.26789

>  <SCORE.SYSTEM.POLAR>
-1.21563

>  <SCORE.SYSTEM.VDW>
-9.79761

>  <SCORE.SYSTEM.norm>
-0.458511

>  <SCORE.heavy>
29

>  <SCORE.norm>
-0.86302

$$$$
OHT.pdb
  rDOCK(R)          3D
libRbt.so/2013.1/901 2013/11/27
 30 32  0  0  0  0  0  0  0  0999 V2000
   70.3062   32.5571   75.3961 C   0  0  0  0  0  0
   69.4906   31.5282   74.6623 C   0  0  0  0  0  0
   68.9624   32.0509   73.3425 C   0  0  0  0  0  0
   69.4864   31.3134   72.1525 C   0  0  0  0  0  0
   69.2445   29.9318   71.9984 C   0  0  0  0  0  0
   69.6922   29.2554   70.8631 C   0  0  0  0  0  0
   70.3832   29.9170   69.8671 C   0  0  0  0  0  0
   70.6288   31.2628   70.0016 C   0  0  0  0  0  0
   70.1832   31.9528   71.1345 C   0  0  0  0  0  0
   68.0900   33.0982   73.2606 C   0  0  0  0  0  0
   66.6253   33.0013   73.6107 C   0  0  0  0  0  0
   65.6283   32.7476   72.6178 C   0  0  0  0  0  0
   64.2694   32.7147   72.9623 C   0  0  0  0  0  0
   63.8942   32.9346   74.3011 C   0  0  0  0  0  0
   62.5662   32.9176   74.6074 O   0  0  0  0  0  0
   64.8713   33.1834   75.2917 C   0  0  0  0  0  0
   66.2121   33.2131   74.9295 C   0  0  0  0  0  0
   68.4979   34.4297   72.8023 C   0  0  0  0  0  0
   69.1017   35.3448   73.6614 C   0  0  0  0  0  0
   69.5108   36.5807   73.2462 C   0  0  0  0  0  0
   69.3273   36.9506   71.9235 C   0  0  0  0  0  0
   69.7395   38.1504   71.4185 O   0  0  0  0  0  0
   68.7844   39.0617   70.8836 C   0  0  0  0  0  0
   69.5641   40.2261   70.3354 C   0  0  0  0  0  0
   68.7378   41.2973   69.8499 N   0  0  0  0  0  0
   68.4023   42.2460   70.9127 C   0  0  0  0  0  0
   69.4499   42.0272   68.7947 C   0  0  0  0  0  0
   68.7185   36.0537   71.0286 C   0  0  0  0  0  0
   68.3183   34.8235   71.4694 C   0  0  0  0  0  0
   62.2523   33.3839   75.3571 H   0  0  0  0  0  0
  1  2  1  0  0  0
  2  3  1  0  0  0
  3  4  1  0  0  0
  3 10  1  0  0  0
  4  5  2  0  0  0
  4  9  1  0  0  0
  5  6  1  0  0  0
  6  7  2  0  0  0
  7  8  1  0  0  0
  8  9  2  0  0  0
 10 11  1  0  0  0
 10 18  1  0  0  0
 11 12  2  0  0  0
 11 17  1  0  0  0
 12 13  1  0  0  0
 13 14  2  0  0  0
 14 15  1  0  0  0
 14 16  1  0  0  0
 15 30  1  0  0  0
 16 17  2  0  0  0
 18 19  2  0  0  0
 18 29  1  0  0  0
 19 20  1  0  0  0
 20 21  2  0  0  0
 21 22  1  0  0  0
 21 28  1  0  0  0
 22 23  1  0  0  0
 23 24  1  0  0  0
 24 25  1  0  0  0
 25 26  1  0  0  0
 25 27  1  0  0  0
 28 29  2  0  0  0
M  END
>  <CHROM.0>
-106.92821284,-2.03644187,57.82083795,-139.95822013

>  <CHROM.1>
116.93254852,60.54281539,-74.53487679,-94.67337105,-82.63320486,-155.00543335
-118.40477229,-176.29219168,-175.23907088,87.95919100,68.21928325,34.63718526
72.31306097,-1.74705937,0.52777032,-0.19668896

>  <FORMUL>
      OHT    C26 H29 N1 O2

>  <HET>
 OHT  A 600      29

>  <HETNAM>
     OHT 4-HYDROXYTAMOXIFEN

>  <Name>
OHT.pdb

>  <RI>
2.84527e+07

>  <Rbt.Current_Directory>
/home/malgorzata/Desktop/rDOCK_IFD/Wyniki/5_estrogen_receptor/IFD

>  <Rbt.Executable>
rbdock ($Id: //depot/dev/client3/rdock/2013.1/src/exe/rbdock.cxx#4 $)

>  <Rbt.Library>
libRbt.so (2013.1, Build901 2013/11/27)

>  <Rbt.Parameter_File>
/home/malgorzata/Desktop/rDock_2013.1_src/data/scripts/dock.prm

>  <Rbt.Receptor>
cavity.prm

>  <SCORE>
-35.9597

>  <SCORE.INTER>
-15.745

>  <SCORE.INTER.CONST>
1

>  <SCORE.INTER.POLAR>
-1.74374

>  <SCORE.INTER.REPUL>
0.0203975

>  <SCORE.INTER.ROT>
9

>  <SCORE.INTER.VDW>
-24.3182

>  <SCORE.INTER.norm>
-0.542929

>  <SCORE.INTRA>
-5.06543

>  <SCORE.INTRA.DIHEDRAL>
-2.93462

>  <SCORE.INTRA.DIHEDRAL.0>
14.7815

>  <SCORE.INTRA.POLAR>
0

>  <SCORE.INTRA.POLAR.0>
0

>  <SCORE.INTRA.REPUL>
0

>  <SCORE.INTRA.REPUL.0>
0

>  <SCORE.INTRA.VDW>
-3.59812

>  <SCORE.INTRA.VDW.0>
-0.0652974

>  <SCORE.INTRA.norm>
-0.17467

>  <SCORE.RESTR>
0

>  <SCORE.RESTR.CAVITY>
0

>  <SCORE.RESTR.norm>
0

>  <SCORE.SYSTEM>
-15.1493

>  <SCORE.SYSTEM.CONST>
0

>  <SCORE.SYSTEM.DIHEDRAL>
1.23966

>  <SCORE.SYSTEM.POLAR>
-1.51208

>  <SCORE.SYSTEM.VDW>
-10.6281

>  <SCORE.SYSTEM.norm>
-0.522391

>  <SCORE.heavy>
29

>  <SCORE.norm>
-1.23999

$$$$
OHT.pdb
  rDOCK(R)          3D
libRbt.so/2013.1/901 2013/11/27
 30 32  0  0  0  0  0  0  0  0999 V2000
   69.1156   30.5253   72.4464 C   0  0  0  0  0  0
   67.8633   30.6419   73.2713 C   0  0  0  0  0  0
   67.7094   32.0169   73.8877 C   0  0  0  0  0  0
   66.5027   32.7574   73.4082 C   0  0  0  0  0  0
   65.2280   32.4817   73.9470 C   0  0  0  0  0  0
   64.1107   33.2078   73.5335 C   0  0  0  0  0  0
   64.2224   34.2083   72.5881 C   0  0  0  0  0  0
   65.4564   34.4893   72.0516 C   0  0  0  0  0  0
   66.5850   33.7695   72.4597 C   0  0  0  0  0  0
   68.5966   32.5214   74.7949 C   0  0  0  0  0  0
   69.1108   33.9399   74.7682 C   0  0  0  0  0  0
   70.3696   34.2742   74.1782 C   0  0  0  0  0  0
   70.8475   35.5921   74.2136 C   0  0  0  0  0  0
   70.0726   36.5876   74.8381 C   0  0  0  0  0  0
   70.5676   37.8569   74.8774 O   0  0  0  0  0  0
   68.8254   36.2693   75.4220 C   0  0  0  0  0  0
   68.3705   34.9575   75.3774 C   0  0  0  0  0  0
   69.1528   31.7151   75.8857 C   0  0  0  0  0  0
   70.3985   31.9976   76.4412 C   0  0  0  0  0  0
   70.9220   31.2728   77.4745 C   0  0  0  0  0  0
   70.1971   30.2160   78.0015 C   0  0  0  0  0  0
   70.6300   29.4649   79.0565 O   0  0  0  0  0  0
   71.6649   29.9576   79.9021 C   0  0  0  0  0  0
   71.0036   30.8651   80.9038 C   0  0  0  0  0  0
   70.5051   32.0873   80.3350 N   0  0  0  0  0  0
   69.0475   32.1752   80.4347 C   0  0  0  0  0  0
   71.0814   33.2322   81.0492 C   0  0  0  0  0  0
   68.9373   29.9000   77.4640 C   0  0  0  0  0  0
   68.4365   30.6408   76.4304 C   0  0  0  0  0  0
   71.3365   38.0753   74.3884 H   0  0  0  0  0  0
  1  2  1  0  0  0
  2  3  1  0  0  0
  3  4  1  0  0  0
  3 10  1  0  0  0
  4  5  2  0  0  0
  4  9  1  0  0  0
  5  6  1  0  0  0
  6  7  2  0  0  0
  7  8  1  0  0  0
  8  9  2  0  0  0
 10 11  1  0  0  0
 10 18  1  0  0  0
 11 12  2  0  0  0
 11 17  1  0  0  0
 12 13  1  0  0  0
 13 14  2  0  0  0
 14 15  1  0  0  0
 14 16  1  0  0  0
 15 30  1  0  0  0
 16 17  2  0  0  0
 18 19  2  0  0  0
 18 29  1  0  0  0
 19 20  1  0  0  0
 20 21  2  0  0  0
 21 22  1  0  0  0
 21 28  1  0  0  0
 22 23  1  0  0  0
 23 24  1  0  0  0
 24 25  1  0  0  0
 25 26  1  0  0  0
 25 27  1  0  0  0
 28 29  2  0  0  0
M  END
>  <CHROM.0>
-146.11702273,-2.34712237,59.94162755,-58.42569517

>  <CHROM.1>
116.84441820,80.15030870,136.94349155,-97.38086566,152.87797749,9.07693023
17.63558539,83.18218881,-69.51866671,115.83234452,68.87221340,32.73841167
75.92371105,2.38759899,-0.85118392,-0.47862518

>  <FORMUL>
      OHT    C26 H29 N1 O2

>  <HET>
 OHT  A 600      29

>  <HETNAM>
     OHT 4-HYDROXYTAMOXIFEN

>  <Name>
OHT.pdb

>  <RI>
2.84527e+07

>  <Rbt.Current_Directory>
/home/malgorzata/Desktop/rDOCK_IFD/Wyniki/5_estrogen_receptor/IFD

>  <Rbt.Executable>
rbdock ($Id: //depot/dev/client3/rdock/2013.1/src/exe/rbdock.cxx#4 $)

>  <Rbt.Library>
libRbt.so (2013.1, Build901 2013/11/27)

>  <Rbt.Parameter_File>
/home/malgorzata/Desktop/rDock_2013.1_src/data/scripts/dock.prm

>  <Rbt.Receptor>
cavity.prm

>  <SCORE>
-30.6385

>  <SCORE.INTER>
-11.1529

>  <SCORE.INTER.CONST>
1

>  <SCORE.INTER.POLAR>
-0.556207

>  <SCORE.INTER.REPUL>
0

>  <SCORE.INTER.ROT>
9

>  <SCORE.INTER.VDW>
-23.6618

>  <SCORE.INTER.norm>
-0.384583

>  <SCORE.INTRA>
-4.3448

>  <SCORE.INTRA.DIHEDRAL>
-2.66756

>  <SCORE.INTRA.DIHEDRAL.0>
14.7815

>  <SCORE.INTRA.POLAR>
0

>  <SCORE.INTRA.POLAR.0>
0

>  <SCORE.INTRA.REPUL>
0

>  <SCORE.INTRA.REPUL.0>
0

>  <SCORE.INTRA.VDW>
-3.01103

>  <SCORE.INTRA.VDW.0>
-0.0652974

>  <SCORE.INTRA.norm>
-0.149821

>  <SCORE.RESTR>
0

>  <SCORE.RESTR.CAVITY>
0

>  <SCORE.RESTR.norm>
0

>  <SCORE.SYSTEM>
-15.1408

>  <SCORE.SYSTEM.CONST>
0

>  <SCORE.SYSTEM.DIHEDRAL>
1.20599

>  <SCORE.SYSTEM.POLAR>
-1.47651

>  <SCORE.SYSTEM.VDW>
-10.7237

>  <SCORE.SYSTEM.norm>
-0.522097

>  <SCORE.heavy>
29

>  <SCORE.norm>
-1.0565

$$$$
OHT.pdb
  rDOCK(R)          3D
libRbt.so/2013.1/901 2013/11/27
 30 32  0  0  0  0  0  0  0  0999 V2000
   66.0771   32.3184   73.2685 C   0  0  0  0  0  0
   67.1317   31.3155   73.6481 C   0  0  0  0  0  0
   68.5323   31.8718   73.4961 C   0  0  0  0  0  0
   69.2593   31.3473   72.2999 C   0  0  0  0  0  0
   69.9483   32.2239   71.4351 C   0  0  0  0  0  0
   70.6670   31.7277   70.3470 C   0  0  0  0  0  0
   70.7197   30.3723   70.0877 C   0  0  0  0  0  0
   70.0532   29.5040   70.9191 C   0  0  0  0  0  0
   69.3305   29.9891   72.0150 C   0  0  0  0  0  0
   69.0690   32.7675   74.3760 C   0  0  0  0  0  0
   69.3438   32.4585   75.8273 C   0  0  0  0  0  0
   70.6459   32.0854   76.2850 C   0  0  0  0  0  0
   70.8621   31.7526   77.6300 C   0  0  0  0  0  0
   69.7801   31.7897   78.5297 C   0  0  0  0  0  0
   70.0111   31.4426   79.8273 O   0  0  0  0  0  0
   68.4891   32.1600   78.0891 C   0  0  0  0  0  0
   68.2957   32.4848   76.7523 C   0  0  0  0  0  0
   69.4183   34.1382   73.9907 C   0  0  0  0  0  0
   68.4605   35.1479   73.9349 C   0  0  0  0  0  0
   68.7717   36.4362   73.6021 C   0  0  0  0  0  0
   70.0852   36.7660   73.3091 C   0  0  0  0  0  0
   70.4872   38.0347   73.0035 O   0  0  0  0  0  0
   71.5783   38.6226   73.7056 C   0  0  0  0  0  0
   71.7767   39.9935   73.1177 C   0  0  0  0  0  0
   70.6362   40.8556   73.2647 N   0  0  0  0  0  0
   71.0256   42.1993   73.6947 C   0  0  0  0  0  0
   69.9397   40.9720   71.9784 C   0  0  0  0  0  0
   71.0782   35.7721   73.3525 C   0  0  0  0  0  0
   70.7404   34.4910   73.6882 C   0  0  0  0  0  0
   70.8755   31.2085   80.1029 H   0  0  0  0  0  0
  1  2  1  0  0  0
  2  3  1  0  0  0
  3  4  1  0  0  0
  3 10  1  0  0  0
  4  5  2  0  0  0
  4  9  1  0  0  0
  5  6  1  0  0  0
  6  7  2  0  0  0
  7  8  1  0  0  0
  8  9  2  0  0  0
 10 11  1  0  0  0
 10 18  1  0  0  0
 11 12  2  0  0  0
 11 17  1  0  0  0
 12 13  1  0  0  0
 13 14  2  0  0  0
 14 15  1  0  0  0
 14 16  1  0  0  0
 15 30  1  0  0  0
 16 17  2  0  0  0
 18 19  2  0  0  0
 18 29  1  0  0  0
 19 20  1  0  0  0
 20 21  2  0  0  0
 21 22  1  0  0  0
 21 28  1  0  0  0
 22 23  1  0  0  0
 23 24  1  0  0  0
 24 25  1  0  0  0
 25 26  1  0  0  0
 25 27  1  0  0  0
 28 29  2  0  0  0
M  END
>  <CHROM.0>
144.51201883,-2.17400547,173.22560796,-156.97081182

>  <CHROM.1>
-105.12645389,132.92267978,64.22935894,98.10747865,81.78423982,1.47279304
128.05724714,178.98511706,61.10313716,135.62509174,69.73888723,34.28931272
74.00334781,3.10386108,1.40486455,1.43474554

>  <FORMUL>
      OHT    C26 H29 N1 O2

>  <HET>
 OHT  A 600      29

>  <HETNAM>
     OHT 4-HYDROXYTAMOXIFEN

>  <Name>
OHT.pdb

>  <RI>
2.84527e+07

>  <Rbt.Current_Directory>
/home/malgorzata/Desktop/rDOCK_IFD/Wyniki/5_estrogen_receptor/IFD

>  <Rbt.Executable>
rbdock ($Id: //depot/dev/client3/rdock/2013.1/src/exe/rbdock.cxx#4 $)

>  <Rbt.Library>
libRbt.so (2013.1, Build901 2013/11/27)

>  <Rbt.Parameter_File>
/home/malgorzata/Desktop/rDock_2013.1_src/data/scripts/dock.prm

>  <Rbt.Receptor>
cavity.prm

>  <SCORE>
-25.7786

>  <SCORE.INTER>
-7.16255

>  <SCORE.INTER.CONST>
1

>  <SCORE.INTER.POLAR>
0

>  <SCORE.INTER.REPUL>
0.000727052

>  <SCORE.INTER.ROT>
9

>  <SCORE.INTER.VDW>
-21.5662

>  <SCORE.INTER.norm>
-0.246985

>  <SCORE.INTRA>
-5.11902

>  <SCORE.INTRA.DIHEDRAL>
-3.55499

>  <SCORE.INTRA.DIHEDRAL.0>
14.7815

>  <SCORE.INTRA.POLAR>
0

>  <SCORE.INTRA.POLAR.0>
0

>  <SCORE.INTRA.REPUL>
0

>  <SCORE.INTRA.REPUL.0>
0

>  <SCORE.INTRA.VDW>
-3.34153

>  <SCORE.INTRA.VDW.0>
-0.0652974

>  <SCORE.INTRA.norm>
-0.176518

>  <SCORE.RESTR>
0

>  <SCORE.RESTR.CAVITY>
0

>  <SCORE.RESTR.norm>
0

>  <SCORE.SYSTEM>
-13.497

>  <SCORE.SYSTEM.CONST>
0

>  <SCORE.SYSTEM.DIHEDRAL>
1.44061

>  <SCORE.SYSTEM.POLAR>
-1.19211

>  <SCORE.SYSTEM.VDW>
-10.1641

>  <SCORE.SYSTEM.norm>
-0.465414

>  <SCORE.heavy>
29

>  <SCORE.norm>
-0.888917

$$$$
OHT.pdb
  rDOCK(R)          3D
libRbt.so/2013.1/901 2013/11/27
 30 32  0  0  0  0  0  0  0  0999 V2000
   66.4189   29.5993   72.6110 C   0  0  0  0  0  0
   65.6692   30.8860   72.4003 C   0  0  0  0  0  0
   65.7749   31.8125   73.5939 C   0  0  0  0  0  0
   64.6072   31.7286   74.5234 C   0  0  0  0  0  0
   63.5229   32.6229   74.3992 C   0  0  0  0  0  0
   62.4120   32.5118   75.2360 C   0  0  0  0  0  0
   62.3467   31.5301   76.2052 C   0  0  0  0  0  0
   63.3948   30.6512   76.3410 C   0  0  0  0  0  0
   64.5137   30.7509   75.5064 C   0  0  0  0  0  0
   66.8416   32.6418   73.7910 C   0  0  0  0  0  0
   67.9810   32.3364   74.7322 C   0  0  0  0  0  0
   69.1079   31.5572   74.3234 C   0  0  0  0  0  0
   70.1278   31.2441   75.2335 C   0  0  0  0  0  0
   70.0314   31.7065   76.5596 C   0  0  0  0  0  0
   71.0251   31.3723   77.4305 O   0  0  0  0  0  0
   68.9235   32.4801   76.9741 C   0  0  0  0  0  0
   67.9232   32.7782   76.0574 C   0  0  0  0  0  0
   66.9729   33.9328   73.1087 C   0  0  0  0  0  0
   66.0807   34.9766   73.3422 C   0  0  0  0  0  0
   66.2018   36.1944   72.7345 C   0  0  0  0  0  0
   67.2476   36.4151   71.8527 C   0  0  0  0  0  0
   67.4623   37.6122   71.2319 O   0  0  0  0  0  0
   68.7151   38.2739   71.3790 C   0  0  0  0  0  0
   68.5693   39.6181   70.7186 C   0  0  0  0  0  0
   69.7915   40.3727   70.6685 N   0  0  0  0  0  0
   69.7861   41.3389   69.5692 C   0  0  0  0  0  0
   69.9644   41.1114   71.9246 C   0  0  0  0  0  0
   68.1657   35.3835   71.5906 C   0  0  0  0  0  0
   68.0220   34.1745   72.2115 C   0  0  0  0  0  0
   71.0063   31.6964   78.3095 H   0  0  0  0  0  0
  1  2  1  0  0  0
  2  3  1  0  0  0
  3  4  1  0  0  0
  3 10  1  0  0  0
  4  5  2  0  0  0
  4  9  1  0  0  0
  5  6  1  0  0  0
  6  7  2  0  0  0
  7  8  1  0  0  0
  8  9  2  0  0  0
 10 11  1  0  0  0
 10 18  1  0  0  0
 11 12  2  0  0  0
 11 17  1  0  0  0
 12 13  1  0  0  0
 13 14  2  0  0  0
 14 15  1  0  0  0
 14 16  1  0  0  0
 15 30  1  0  0  0
 16 17  2  0  0  0
 18 19  2  0  0  0
 18 29  1  0  0  0
 19 20  1  0  0  0
 20 21  2  0  0  0
 21 22  1  0  0  0
 21 28  1  0  0  0
 22 23  1  0  0  0
 23 24  1  0  0  0
 24 25  1  0  0  0
 25 26  1  0  0  0
 25 27  1  0  0  0
 28 29  2  0  0  0
M  END
>  <CHROM.0>
-79.51658962,-2.11745389,174.49359988,-154.70757694

>  <CHROM.1>
-96.94735156,-94.37851105,-99.86177070,85.93150227,65.02794328,177.38165785
123.37243147,-173.46608613,-174.55007864,155.01249021,67.23261764,34.15126612
73.61962445,1.90599319,0.20678467,2.58864651

>  <FORMUL>
      OHT    C26 H29 N1 O2

>  <HET>
 OHT  A 600      29

>  <HETNAM>
     OHT 4-HYDROXYTAMOXIFEN

>  <Name>
OHT.pdb

>  <RI>
2.84527e+07

>  <Rbt.Current_Directory>
/home/malgorzata/Desktop/rDOCK_IFD/Wyniki/5_estrogen_receptor/IFD

>  <Rbt.Executable>
rbdock ($Id: //depot/dev/client3/rdock/2013.1/src/exe/rbdock.cxx#4 $)

>  <Rbt.Library>
libRbt.so (2013.1, Build901 2013/11/27)

>  <Rbt.Parameter_File>
/home/malgorzata/Desktop/rDock_2013.1_src/data/scripts/dock.prm

>  <Rbt.Receptor>
cavity.prm

>  <SCORE>
-26.9491

>  <SCORE.INTER>
-8.38865

>  <SCORE.INTER.CONST>
1

>  <SCORE.INTER.POLAR>
-0.748331

>  <SCORE.INTER.REPUL>
0

>  <SCORE.INTER.ROT>
9

>  <SCORE.INTER.VDW>
-20.2443

>  <SCORE.INTER.norm>
-0.289264

>  <SCORE.INTRA>
-5.16974

>  <SCORE.INTRA.DIHEDRAL>
-3.08236

>  <SCORE.INTRA.DIHEDRAL.0>
14.7815

>  <SCORE.INTRA.POLAR>
0

>  <SCORE.INTRA.POLAR.0>
0

>  <SCORE.INTRA.REPUL>
0

>  <SCORE.INTRA.REPUL.0>
0

>  <SCORE.INTRA.VDW>
-3.62856

>  <SCORE.INTRA.VDW.0>
-0.0652974

>  <SCORE.INTRA.norm>
-0.178267

>  <SCORE.RESTR>
0

>  <SCORE.RESTR.CAVITY>
0

>  <SCORE.RESTR.norm>
0

>  <SCORE.SYSTEM>
-13.3908

>  <SCORE.SYSTEM.CONST>
0

>  <SCORE.SYSTEM.DIHEDRAL>
1.36568

>  <SCORE.SYSTEM.POLAR>
-1.19573

>  <SCORE.SYSTEM.VDW>
-10.0081

>  <SCORE.SYSTEM.norm>
-0.46175

>  <SCORE.heavy>
29

>  <SCORE.norm>
-0.929281

$$$$
OHT.pdb
  rDOCK(R)          3D
libRbt.so/2013.1/901 2013/11/27
 30 32  0  0  0  0  0  0  0  0999 V2000
   62.9732   32.4904   74.9064 C   0  0  0  0  0  0
   63.8278   31.2544   74.9714 C   0  0  0  0  0  0
   65.0580   31.3619   74.0943 C   0  0  0  0  0  0
   65.0899   30.3647   72.9812 C   0  0  0  0  0  0
   65.8978   29.2113   73.0713 C   0  0  0  0  0  0
   65.8889   28.2574   72.0531 C   0  0  0  0  0  0
   65.0953   28.4183   70.9344 C   0  0  0  0  0  0
   64.3030   29.5367   70.8295 C   0  0  0  0  0  0
   64.3015   30.4997   71.8450 C   0  0  0  0  0  0
   66.0388   32.2871   74.3106 C   0  0  0  0  0  0
   66.3140   33.4510   73.3903 C   0  0  0  0  0  0
   67.4677   33.4883   72.5467 C   0  0  0  0  0  0
   67.7269   34.6056   71.7398 C   0  0  0  0  0  0
   66.8361   35.6952   71.7682 C   0  0  0  0  0  0
   67.1201   36.7778   70.9904 O   0  0  0  0  0  0
   65.6907   35.6682   72.5961 C   0  0  0  0  0  0
   65.4528   34.5524   73.3887 C   0  0  0  0  0  0
   66.9398   32.2253   75.4655 C   0  0  0  0  0  0
   68.2317   32.7431   75.4127 C   0  0  0  0  0  0
   69.0766   32.7167   76.4863 C   0  0  0  0  0  0
   68.6453   32.1597   77.6794 C   0  0  0  0  0  0
   69.4116   32.1261   78.8091 O   0  0  0  0  0  0
   70.8304   32.2021   78.7076 C   0  0  0  0  0  0
   71.2615   31.0386   77.8563 C   0  0  0  0  0  0
   71.2143   29.7746   78.5389 N   0  0  0  0  0  0
   69.9358   29.0938   78.3287 C   0  0  0  0  0  0
   72.2830   28.9043   78.0353 C   0  0  0  0  0  0
   67.3485   31.6248   77.7686 C   0  0  0  0  0  0
   66.5231   31.6636   76.6800 C   0  0  0  0  0  0
   67.0830   37.6399   71.3557 H   0  0  0  0  0  0
  1  2  1  0  0  0
  2  3  1  0  0  0
  3  4  1  0  0  0
  3 10  1  0  0  0
  4  5  2  0  0  0
  4  9  1  0  0  0
  5  6  1  0  0  0
  6  7  2  0  0  0
  7  8  1  0  0  0
  8  9  2  0  0  0
 10 11  1  0  0  0
 10 18  1  0  0  0
 11 12  2  0  0  0
 11 17  1  0  0  0
 12 13  1  0  0  0
 13 14  2  0  0  0
 14 15  1  0  0  0
 14 16  1  0  0  0
 15 30  1  0  0  0
 16 17  2  0  0  0
 18 19  2  0  0  0
 18 29  1  0  0  0
 19 20  1  0  0  0
 20 21  2  0  0  0
 21 22  1  0  0  0
 21 28  1  0  0  0
 22 23  1  0  0  0
 23 24  1  0  0  0
 24 25  1  0  0  0
 25 26  1  0  0  0
 25 27  1  0  0  0
 28 29  2  0  0  0
M  END
>  <CHROM.0>
-130.32078892,-2.08286990,58.16658371,-163.72188408

>  <CHROM.1>
-116.35908866,-102.11762241,-111.42149993,-107.33224275,151.36887187,-131.82604708
-23.32642360,-58.83760414,-74.95638541,92.83697794,67.19421128,31.87674284
74.76240882,2.69231460,-0.80429760,-0.28957909

>  <FORMUL>
      OHT    C26 H29 N1 O2

>  <HET>
 OHT  A 600      29

>  <HETNAM>
     OHT 4-HYDROXYTAMOXIFEN

>  <Name>
OHT.pdb

>  <RI>
2.84527e+07

>  <Rbt.Current_Directory>
/home/malgorzata/Desktop/rDOCK_IFD/Wyniki/5_estrogen_receptor/IFD

>  <Rbt.Executable>
rbdock ($Id: //depot/dev/client3/rdock/2013.1/src/exe/rbdock.cxx#4 $)

>  <Rbt.Library>
libRbt.so (2013.1, Build901 2013/11/27)

>  <Rbt.Parameter_File>
/home/malgorzata/Desktop/rDock_2013.1_src/data/scripts/dock.prm

>  <Rbt.Receptor>
cavity.prm

>  <SCORE>
-23.0075

>  <SCORE.INTER>
-5.23351

>  <SCORE.INTER.CONST>
1

>  <SCORE.INTER.POLAR>
-0.224328

>  <SCORE.INTER.REPUL>
0.254838

>  <SCORE.INTER.ROT>
9

>  <SCORE.INTER.VDW>
-20.145

>  <SCORE.INTER.norm>
-0.180466

>  <SCORE.INTRA>
-2.53988

>  <SCORE.INTRA.DIHEDRAL>
-2.72219

>  <SCORE.INTRA.DIHEDRAL.0>
14.7815

>  <SCORE.INTRA.POLAR>
0

>  <SCORE.INTRA.POLAR.0>
0

>  <SCORE.INTRA.REPUL>
0

>  <SCORE.INTRA.REPUL.0>
0

>  <SCORE.INTRA.VDW>
-1.17879

>  <SCORE.INTRA.VDW.0>
-0.0652974

>  <SCORE.INTRA.norm>
-0.0875821

>  <SCORE.RESTR>
0.0134373

>  <SCORE.RESTR.CAVITY>
0.0134373

>  <SCORE.RESTR.norm>
0.000463357

>  <SCORE.SYSTEM>
-15.2475

>  <SCORE.SYSTEM.CONST>
0

>  <SCORE.SYSTEM.DIHEDRAL>
1.23088

>  <SCORE.SYSTEM.POLAR>
-1.50695

>  <SCORE.SYSTEM.VDW>
-10.7393

>  <SCORE.SYSTEM.norm>
-0.525777

>  <SCORE.heavy>
29

>  <SCORE.norm>
-0.793362

$$$$
