OHT.pdb
  rDOCK(R)          3D
libRbt.so/2013.1/901 2013/11/27
 30 32  0  0  0  0  0  0  0  0999 V2000
   71.3833   36.4254   81.6418 C   0  0  0  0  0  0
   70.6813   35.4070   82.4976 C   0  0  0  0  0  0
   69.2632   35.1480   82.0328 C   0  0  0  0  0  0
   68.2775   36.1597   82.5222 C   0  0  0  0  0  0
   67.6576   37.0536   81.6236 C   0  0  0  0  0  0
   66.7016   37.9642   82.0748 C   0  0  0  0  0  0
   66.3414   38.0160   83.4070 C   0  0  0  0  0  0
   66.9363   37.1533   84.2965 C   0  0  0  0  0  0
   67.8951   36.2340   83.8560 C   0  0  0  0  0  0
   68.9292   34.0865   81.2414 C   0  0  0  0  0  0
   68.1908   32.8676   81.7377 C   0  0  0  0  0  0
   68.6845   31.5445   81.5143 C   0  0  0  0  0  0
   67.9519   30.4273   81.9404 C   0  0  0  0  0  0
   66.7201   30.6215   82.5936 C   0  0  0  0  0  0
   66.0171   29.5198   82.9804 O   0  0  0  0  0  0
   66.2237   31.9250   82.8226 C   0  0  0  0  0  0
   66.9642   33.0184   82.3915 C   0  0  0  0  0  0
   69.2767   34.0242   79.8185 C   0  0  0  0  0  0
   68.9107   35.0343   78.9321 C   0  0  0  0  0  0
   69.2469   35.0054   77.6080 C   0  0  0  0  0  0
   69.9814   33.9391   77.1146 C   0  0  0  0  0  0
   70.3899   33.8502   75.8147 O   0  0  0  0  0  0
   69.5904   34.4131   74.7788 C   0  0  0  0  0  0
   68.3427   33.5757   74.6982 C   0  0  0  0  0  0
   68.5975   32.1808   74.4635 N   0  0  0  0  0  0
   67.4805   31.3449   74.9059 C   0  0  0  0  0  0
   68.7973   31.9529   73.0278 C   0  0  0  0  0  0
   70.3659   32.8998   77.9795 C   0  0  0  0  0  0
   70.0166   32.9529   79.2998 C   0  0  0  0  0  0
   66.0881   28.7234   82.4918 H   0  0  0  0  0  0
  1  2  1  0  0  0
  2  3  1  0  0  0
  3  4  1  0  0  0
  3 10  1  0  0  0
  4  5  2  0  0  0
  4  9  1  0  0  0
  5  6  1  0  0  0
  6  7  2  0  0  0
  7  8  1  0  0  0
  8  9  2  0  0  0
 10 11  1  0  0  0
 10 18  1  0  0  0
 11 12  2  0  0  0
 11 17  1  0  0  0
 12 13  1  0  0  0
 13 14  2  0  0  0
 14 15  1  0  0  0
 14 16  1  0  0  0
 15 30  1  0  0  0
 16 17  2  0  0  0
 18 19  2  0  0  0
 18 29  1  0  0  0
 19 20  1  0  0  0
 20 21  2  0  0  0
 21 22  1  0  0  0
 21 28  1  0  0  0
 22 23  1  0  0  0
 23 24  1  0  0  0
 24 25  1  0  0  0
 25 26  1  0  0  0
 25 27  1  0  0  0
 28 29  2  0  0  0
M  END
>  <CHROM.0>
-83.52042125,-62.36683071,-100.89459461,4.17163716

>  <CHROM.1>
-82.14492146,111.89893843,106.16803883,-127.73389500,-54.90868312,-30.02531296
-31.89595071,-68.63932041,-56.96830124,157.46201243,68.48596338,33.90237533
79.88582172,-2.05992638,-1.20769922,-2.31197131

>  <FORMUL>
      OHT    C26 H29 N1 O2

>  <HET>
 OHT  A 600      29

>  <HETNAM>
     OHT 4-HYDROXYTAMOXIFEN

>  <Name>
OHT.pdb

>  <RI>
0

>  <Rbt.Current_Directory>
/home/malgorzata/Desktop/rDOCK_IFD/Wyniki/5a_estrogen_receptor/IFD

>  <Rbt.Executable>
rbdock ($Id: //depot/dev/client3/rdock/2013.1/src/exe/rbdock.cxx#4 $)

>  <Rbt.Library>
libRbt.so (2013.1, Build901 2013/11/27)

>  <Rbt.Parameter_File>
/home/malgorzata/Desktop/rDock_2013.1_src/data/scripts/hard_docking.prm

>  <Rbt.Receptor>
cavity.prm

>  <SCORE>
-28.6312

>  <SCORE.INTER>
-6.62295

>  <SCORE.INTER.CONST>
1

>  <SCORE.INTER.POLAR>
-0.438082

>  <SCORE.INTER.REPUL>
0

>  <SCORE.INTER.ROT>
9

>  <SCORE.INTER.VDW>
-19.5335

>  <SCORE.INTER.norm>
-0.228378

>  <SCORE.INTRA>
-3.96395

>  <SCORE.INTRA.DIHEDRAL>
-2.87269

>  <SCORE.INTRA.DIHEDRAL.0>
14.7815

>  <SCORE.INTRA.POLAR>
0

>  <SCORE.INTRA.POLAR.0>
0

>  <SCORE.INTRA.REPUL>
0

>  <SCORE.INTRA.REPUL.0>
0

>  <SCORE.INTRA.VDW>
-2.5276

>  <SCORE.INTRA.VDW.0>
-0.0652974

>  <SCORE.INTRA.norm>
-0.136688

>  <SCORE.RESTR>
2.03654

>  <SCORE.RESTR.CAVITY>
2.03654

>  <SCORE.RESTR.norm>
0.0702256

>  <SCORE.SYSTEM>
-20.0808

>  <SCORE.SYSTEM.CONST>
0

>  <SCORE.SYSTEM.DIHEDRAL>
0.99631

>  <SCORE.SYSTEM.REPUL>
1.03783

>  <SCORE.SYSTEM.VDW>
-25.7681

>  <SCORE.SYSTEM.norm>
-0.692442

>  <SCORE.heavy>
29

>  <SCORE.norm>
-0.987282

$$$$
OHT.pdb
  rDOCK(R)          3D
libRbt.so/2013.1/901 2013/11/27
 30 32  0  0  0  0  0  0  0  0999 V2000
   65.2980   36.4127   71.7442 C   0  0  0  0  0  0
   66.3663   35.6894   70.9710 C   0  0  0  0  0  0
   67.4015   35.0576   71.8783 C   0  0  0  0  0  0
   68.7938   35.5405   71.6271 C   0  0  0  0  0  0
   69.2228   36.7894   72.1242 C   0  0  0  0  0  0
   70.5369   37.2166   71.9309 C   0  0  0  0  0  0
   71.4466   36.4330   71.2484 C   0  0  0  0  0  0
   71.0452   35.2140   70.7560 C   0  0  0  0  0  0
   69.7305   34.7735   70.9452 C   0  0  0  0  0  0
   67.0807   34.1346   72.8321 C   0  0  0  0  0  0
   66.5706   32.7485   72.5223 C   0  0  0  0  0  0
   67.4541   31.6319   72.3924 C   0  0  0  0  0  0
   66.9587   30.3648   72.0524 C   0  0  0  0  0  0
   65.5767   30.2017   71.8394 C   0  0  0  0  0  0
   65.1219   28.9652   71.4902 O   0  0  0  0  0  0
   64.6936   31.2978   71.9680 C   0  0  0  0  0  0
   65.2046   32.5449   72.3043 C   0  0  0  0  0  0
   67.1880   34.4142   74.2672 C   0  0  0  0  0  0
   68.2316   35.1761   74.7870 C   0  0  0  0  0  0
   68.3344   35.4678   76.1180 C   0  0  0  0  0  0
   67.3705   34.9971   76.9951 C   0  0  0  0  0  0
   67.3779   35.2727   78.3325 O   0  0  0  0  0  0
   68.2397   36.2848   78.8444 C   0  0  0  0  0  0
   67.9069   36.4321   80.3045 C   0  0  0  0  0  0
   66.5729   36.9086   80.5477 N   0  0  0  0  0  0
   65.9622   36.2427   81.6991 C   0  0  0  0  0  0
   66.6084   38.3500   80.8198 C   0  0  0  0  0  0
   66.3043   34.2223   76.5065 C   0  0  0  0  0  0
   66.2248   33.9448   75.1706 C   0  0  0  0  0  0
   65.7198   28.3201   71.1673 H   0  0  0  0  0  0
  1  2  1  0  0  0
  2  3  1  0  0  0
  3  4  1  0  0  0
  3 10  1  0  0  0
  4  5  2  0  0  0
  4  9  1  0  0  0
  5  6  1  0  0  0
  6  7  2  0  0  0
  7  8  1  0  0  0
  8  9  2  0  0  0
 10 11  1  0  0  0
 10 18  1  0  0  0
 11 12  2  0  0  0
 11 17  1  0  0  0
 12 13  1  0  0  0
 13 14  2  0  0  0
 14 15  1  0  0  0
 14 16  1  0  0  0
 15 30  1  0  0  0
 16 17  2  0  0  0
 18 19  2  0  0  0
 18 29  1  0  0  0
 19 20  1  0  0  0
 20 21  2  0  0  0
 21 22  1  0  0  0
 21 28  1  0  0  0
 22 23  1  0  0  0
 23 24  1  0  0  0
 24 25  1  0  0  0
 25 26  1  0  0  0
 25 27  1  0  0  0
 28 29  2  0  0  0
M  END
>  <CHROM.0>
-104.97388555,-162.72277164,112.37743094,177.52906104

>  <CHROM.1>
-121.32204163,78.66202929,67.15433326,92.08720018,-37.81271852,-17.04658314
12.58973139,174.41666056,-64.38505791,141.14527270,67.36571540,34.59162470
74.41623427,-1.54559808,0.87660175,1.13869696

>  <FORMUL>
      OHT    C26 H29 N1 O2

>  <HET>
 OHT  A 600      29

>  <HETNAM>
     OHT 4-HYDROXYTAMOXIFEN

>  <Name>
OHT.pdb

>  <RI>
0

>  <Rbt.Current_Directory>
/home/malgorzata/Desktop/rDOCK_IFD/Wyniki/5a_estrogen_receptor/IFD

>  <Rbt.Executable>
rbdock ($Id: //depot/dev/client3/rdock/2013.1/src/exe/rbdock.cxx#4 $)

>  <Rbt.Library>
libRbt.so (2013.1, Build901 2013/11/27)

>  <Rbt.Parameter_File>
/home/malgorzata/Desktop/rDock_2013.1_src/data/scripts/hard_docking.prm

>  <Rbt.Receptor>
cavity.prm

>  <SCORE>
-10.1574

>  <SCORE.INTER>
-3.31824

>  <SCORE.INTER.CONST>
1

>  <SCORE.INTER.POLAR>
0

>  <SCORE.INTER.REPUL>
0

>  <SCORE.INTER.ROT>
9

>  <SCORE.INTER.VDW>
-17.7182

>  <SCORE.INTER.norm>
-0.114422

>  <SCORE.INTRA>
-5.65511

>  <SCORE.INTRA.DIHEDRAL>
-6.17374

>  <SCORE.INTRA.DIHEDRAL.0>
14.7815

>  <SCORE.INTRA.POLAR>
0

>  <SCORE.INTRA.POLAR.0>
0

>  <SCORE.INTRA.REPUL>
0

>  <SCORE.INTRA.REPUL.0>
0

>  <SCORE.INTRA.VDW>
-2.56824

>  <SCORE.INTRA.VDW.0>
-0.0652974

>  <SCORE.INTRA.norm>
-0.195004

>  <SCORE.RESTR>
0.00441436

>  <SCORE.RESTR.CAVITY>
0.00441436

>  <SCORE.RESTR.norm>
0.000152219

>  <SCORE.SYSTEM>
-1.18847

>  <SCORE.SYSTEM.CONST>
0

>  <SCORE.SYSTEM.DIHEDRAL>
2.26211

>  <SCORE.SYSTEM.POLAR>
-0.0591504

>  <SCORE.SYSTEM.REPUL>
0.163153

>  <SCORE.SYSTEM.VDW>
-2.93418

>  <SCORE.SYSTEM.norm>
-0.0409819

>  <SCORE.heavy>
29

>  <SCORE.norm>
-0.350256

$$$$
OHT.pdb
  rDOCK(R)          3D
libRbt.so/2013.1/901 2013/11/27
 30 32  0  0  0  0  0  0  0  0999 V2000
   65.3430   35.7787   81.8656 C   0  0  0  0  0  0
   65.5988   37.0821   82.5712 C   0  0  0  0  0  0
   67.0762   37.3352   82.7890 C   0  0  0  0  0  0
   67.5762   36.8635   84.1165 C   0  0  0  0  0  0
   67.3479   37.6240   85.2829 C   0  0  0  0  0  0
   67.7723   37.1583   86.5278 C   0  0  0  0  0  0
   68.4266   35.9482   86.6496 C   0  0  0  0  0  0
   68.6585   35.1950   85.5233 C   0  0  0  0  0  0
   68.2359   35.6501   84.2692 C   0  0  0  0  0  0
   67.8665   37.9386   81.8530 C   0  0  0  0  0  0
   68.6526   39.2019   82.1050 C   0  0  0  0  0  0
   68.0900   40.4970   81.8802 C   0  0  0  0  0  0
   68.8597   41.6533   82.0723 C   0  0  0  0  0  0
   70.1978   41.5265   82.4907 C   0  0  0  0  0  0
   70.9315   42.6638   82.6511 O   0  0  0  0  0  0
   70.7636   40.2514   82.7189 C   0  0  0  0  0  0
   69.9845   39.1183   82.5217 C   0  0  0  0  0  0
   68.0140   37.4165   80.4911 C   0  0  0  0  0  0
   68.0895   36.0491   80.2370 C   0  0  0  0  0  0
   68.2021   35.5433   78.9726 C   0  0  0  0  0  0
   68.2412   36.4106   77.8927 C   0  0  0  0  0  0
   68.3154   35.9879   76.5965 O   0  0  0  0  0  0
   67.3512   35.0684   76.0929 C   0  0  0  0  0  0
   67.7151   34.8108   74.6557 C   0  0  0  0  0  0
   67.7076   35.9922   73.8373 N   0  0  0  0  0  0
   68.9174   36.0915   73.0195 C   0  0  0  0  0  0
   66.5496   35.9585   72.9367 C   0  0  0  0  0  0
   68.1704   37.7974   78.1115 C   0  0  0  0  0  0
   68.0582   38.2774   79.3862 C   0  0  0  0  0  0
   71.8371   42.6081   82.8851 H   0  0  0  0  0  0
  1  2  1  0  0  0
  2  3  1  0  0  0
  3  4  1  0  0  0
  3 10  1  0  0  0
  4  5  2  0  0  0
  4  9  1  0  0  0
  5  6  1  0  0  0
  6  7  2  0  0  0
  7  8  1  0  0  0
  8  9  2  0  0  0
 10 11  1  0  0  0
 10 18  1  0  0  0
 11 12  2  0  0  0
 11 17  1  0  0  0
 12 13  1  0  0  0
 13 14  2  0  0  0
 14 15  1  0  0  0
 14 16  1  0  0  0
 15 30  1  0  0  0
 16 17  2  0  0  0
 18 19  2  0  0  0
 18 29  1  0  0  0
 19 20  1  0  0  0
 20 21  2  0  0  0
 21 22  1  0  0  0
 21 28  1  0  0  0
 22 23  1  0  0  0
 23 24  1  0  0  0
 24 25  1  0  0  0
 25 26  1  0  0  0
 25 27  1  0  0  0
 28 29  2  0  0  0
M  END
>  <CHROM.0>
-90.38539030,-162.02016010,123.76522648,-0.95067097

>  <CHROM.1>
-93.26799201,-78.77039922,122.07895763,-88.92573614,-38.80845490,-176.79555587
54.54287040,-179.90644667,-59.90957839,132.36944892,68.15947930,37.46828165
80.55977408,1.38917246,1.11164426,1.47876460

>  <FORMUL>
      OHT    C26 H29 N1 O2

>  <HET>
 OHT  A 600      29

>  <HETNAM>
     OHT 4-HYDROXYTAMOXIFEN

>  <Name>
OHT.pdb

>  <RI>
0

>  <Rbt.Current_Directory>
/home/malgorzata/Desktop/rDOCK_IFD/Wyniki/5a_estrogen_receptor/IFD

>  <Rbt.Executable>
rbdock ($Id: //depot/dev/client3/rdock/2013.1/src/exe/rbdock.cxx#4 $)

>  <Rbt.Library>
libRbt.so (2013.1, Build901 2013/11/27)

>  <Rbt.Parameter_File>
/home/malgorzata/Desktop/rDock_2013.1_src/data/scripts/hard_docking.prm

>  <Rbt.Receptor>
cavity.prm

>  <SCORE>
-6.9876

>  <SCORE.INTER>
-1.24654

>  <SCORE.INTER.CONST>
1

>  <SCORE.INTER.POLAR>
0

>  <SCORE.INTER.REPUL>
0

>  <SCORE.INTER.ROT>
9

>  <SCORE.INTER.VDW>
-15.6465

>  <SCORE.INTER.norm>
-0.042984

>  <SCORE.INTRA>
-4.62747

>  <SCORE.INTRA.DIHEDRAL>
-1.75043

>  <SCORE.INTRA.DIHEDRAL.0>
14.7815

>  <SCORE.INTRA.POLAR>
0

>  <SCORE.INTRA.POLAR.0>
0

>  <SCORE.INTRA.REPUL>
0

>  <SCORE.INTRA.REPUL.0>
0

>  <SCORE.INTRA.VDW>
-3.75225

>  <SCORE.INTRA.VDW.0>
-0.0652974

>  <SCORE.INTRA.norm>
-0.159568

>  <SCORE.RESTR>
0.0513992

>  <SCORE.RESTR.CAVITY>
0.0513992

>  <SCORE.RESTR.norm>
0.00177239

>  <SCORE.SYSTEM>
-1.16499

>  <SCORE.SYSTEM.CONST>
0

>  <SCORE.SYSTEM.DIHEDRAL>
2.36393

>  <SCORE.SYSTEM.POLAR>
-0.0658341

>  <SCORE.SYSTEM.REPUL>
0.167373

>  <SCORE.SYSTEM.VDW>
-2.95999

>  <SCORE.SYSTEM.norm>
-0.0401722

>  <SCORE.heavy>
29

>  <SCORE.norm>
-0.240952

$$$$
OHT.pdb
  rDOCK(R)          3D
libRbt.so/2013.1/901 2013/11/27
 30 32  0  0  0  0  0  0  0  0999 V2000
   67.2443   38.0323   83.5748 C   0  0  0  0  0  0
   67.4959   38.8054   82.3094 C   0  0  0  0  0  0
   68.9535   38.7735   81.8990 C   0  0  0  0  0  0
   69.6874   40.0419   82.1938 C   0  0  0  0  0  0
   70.7942   40.0460   83.0691 C   0  0  0  0  0  0
   71.5080   41.2215   83.3048 C   0  0  0  0  0  0
   71.1494   42.4064   82.6928 C   0  0  0  0  0  0
   70.0729   42.4208   81.8382 C   0  0  0  0  0  0
   69.3501   41.2481   81.5920 C   0  0  0  0  0  0
   69.5311   37.6825   81.3151 C   0  0  0  0  0  0
   70.4950   37.7609   80.1567 C   0  0  0  0  0  0
   70.0720   38.1576   78.8498 C   0  0  0  0  0  0
   70.9777   38.1714   77.7793 C   0  0  0  0  0  0
   72.3137   37.7894   78.0045 C   0  0  0  0  0  0
   73.1702   37.7917   76.9442 O   0  0  0  0  0  0
   72.7439   37.3983   79.2929 C   0  0  0  0  0  0
   71.8307   37.3903   80.3396 C   0  0  0  0  0  0
   69.2516   36.3124   81.7553 C   0  0  0  0  0  0
   69.7662   35.8088   82.9476 C   0  0  0  0  0  0
   69.4964   34.5430   83.3861 C   0  0  0  0  0  0
   68.6797   33.7190   82.6285 C   0  0  0  0  0  0
   68.3306   32.4557   83.0113 O   0  0  0  0  0  0
   67.2946   31.7647   82.3197 C   0  0  0  0  0  0
   67.4946   30.3002   82.6018 C   0  0  0  0  0  0
   68.8037   29.8187   82.2550 N   0  0  0  0  0  0
   69.3047   28.8576   83.2387 C   0  0  0  0  0  0
   68.7513   29.1504   80.9497 C   0  0  0  0  0  0
   68.1448   34.1926   81.4179 C   0  0  0  0  0  0
   68.4303   35.4628   81.0018 C   0  0  0  0  0  0
   72.9912   38.3301   76.1986 H   0  0  0  0  0  0
  1  2  1  0  0  0
  2  3  1  0  0  0
  3  4  1  0  0  0
  3 10  1  0  0  0
  4  5  2  0  0  0
  4  9  1  0  0  0
  5  6  1  0  0  0
  6  7  2  0  0  0
  7  8  1  0  0  0
  8  9  2  0  0  0
 10 11  1  0  0  0
 10 18  1  0  0  0
 11 12  2  0  0  0
 11 17  1  0  0  0
 12 13  1  0  0  0
 13 14  2  0  0  0
 14 15  1  0  0  0
 14 16  1  0  0  0
 15 30  1  0  0  0
 16 17  2  0  0  0
 18 19  2  0  0  0
 18 29  1  0  0  0
 19 20  1  0  0  0
 20 21  2  0  0  0
 21 22  1  0  0  0
 21 28  1  0  0  0
 22 23  1  0  0  0
 23 24  1  0  0  0
 24 25  1  0  0  0
 25 26  1  0  0  0
 25 27  1  0  0  0
 28 29  2  0  0  0
M  END
>  <CHROM.0>
114.98828869,-164.89580354,-86.33616700,-176.09778835

>  <CHROM.1>
-103.68311645,119.01055065,138.17548197,-69.29501014,-73.58774115,23.52164818
168.04057383,159.26835026,-55.51184092,141.08133707,69.67462828,36.33402900
81.46823365,1.16596160,0.94512653,0.20021020

>  <FORMUL>
      OHT    C26 H29 N1 O2

>  <HET>
 OHT  A 600      29

>  <HETNAM>
     OHT 4-HYDROXYTAMOXIFEN

>  <Name>
OHT.pdb

>  <RI>
0

>  <Rbt.Current_Directory>
/home/malgorzata/Desktop/rDOCK_IFD/Wyniki/5a_estrogen_receptor/IFD

>  <Rbt.Executable>
rbdock ($Id: //depot/dev/client3/rdock/2013.1/src/exe/rbdock.cxx#4 $)

>  <Rbt.Library>
libRbt.so (2013.1, Build901 2013/11/27)

>  <Rbt.Parameter_File>
/home/malgorzata/Desktop/rDock_2013.1_src/data/scripts/hard_docking.prm

>  <Rbt.Receptor>
cavity.prm

>  <SCORE>
-0.434028

>  <SCORE.INTER>
-0.618421

>  <SCORE.INTER.CONST>
1

>  <SCORE.INTER.POLAR>
-0.663244

>  <SCORE.INTER.REPUL>
0

>  <SCORE.INTER.ROT>
9

>  <SCORE.INTER.VDW>
-12.7634

>  <SCORE.INTER.norm>
-0.0213249

>  <SCORE.INTRA>
-3.27283

>  <SCORE.INTRA.DIHEDRAL>
-3.25702

>  <SCORE.INTRA.DIHEDRAL.0>
14.7815

>  <SCORE.INTRA.POLAR>
0

>  <SCORE.INTRA.POLAR.0>
0

>  <SCORE.INTRA.REPUL>
0

>  <SCORE.INTRA.REPUL.0>
0

>  <SCORE.INTRA.VDW>
-1.64432

>  <SCORE.INTRA.VDW.0>
-0.0652974

>  <SCORE.INTRA.norm>
-0.112856

>  <SCORE.RESTR>
4.55146

>  <SCORE.RESTR.CAVITY>
4.55146

>  <SCORE.RESTR.norm>
0.156947

>  <SCORE.SYSTEM>
-1.09423

>  <SCORE.SYSTEM.CONST>
0

>  <SCORE.SYSTEM.DIHEDRAL>
1.99598

>  <SCORE.SYSTEM.POLAR>
-0.0382933

>  <SCORE.SYSTEM.REPUL>
0.149901

>  <SCORE.SYSTEM.VDW>
-2.71153

>  <SCORE.SYSTEM.norm>
-0.0377322

>  <SCORE.heavy>
29

>  <SCORE.norm>
-0.0149665

$$$$
OHT.pdb
  rDOCK(R)          3D
libRbt.so/2013.1/901 2013/11/27
 30 32  0  0  0  0  0  0  0  0999 V2000
   66.0303   36.8957   81.8322 C   0  0  0  0  0  0
   66.4828   37.8019   80.7203 C   0  0  0  0  0  0
   67.8961   37.4947   80.2704 C   0  0  0  0  0  0
   68.8887   38.5451   80.6523 C   0  0  0  0  0  0
   69.2481   39.5609   79.7412 C   0  0  0  0  0  0
   70.1374   40.5684   80.1164 C   0  0  0  0  0  0
   70.6889   40.5955   81.3822 C   0  0  0  0  0  0
   70.3509   39.6130   82.2821 C   0  0  0  0  0  0
   69.4584   38.5982   81.9186 C   0  0  0  0  0  0
   68.2202   36.3614   79.5810 C   0  0  0  0  0  0
   68.9648   35.1952   80.1835 C   0  0  0  0  0  0
   70.3718   35.0221   79.9972 C   0  0  0  0  0  0
   71.0295   33.9013   80.5242 C   0  0  0  0  0  0
   70.2881   32.9438   81.2420 C   0  0  0  0  0  0
   70.9461   31.8533   81.7270 O   0  0  0  0  0  0
   68.8973   33.1061   81.4349 C   0  0  0  0  0  0
   68.2644   34.2228   80.9037 C   0  0  0  0  0  0
   67.8844   36.1764   78.1660 C   0  0  0  0  0  0
   68.4368   36.9816   77.1727 C   0  0  0  0  0  0
   68.1548   36.8080   75.8470 C   0  0  0  0  0  0
   67.2910   35.7958   75.4609 C   0  0  0  0  0  0
   66.9848   35.5310   74.1568 O   0  0  0  0  0  0
   67.6616   34.4847   73.4666 C   0  0  0  0  0  0
   67.1561   33.1919   74.0474 C   0  0  0  0  0  0
   65.7294   33.0395   73.9631 N   0  0  0  0  0  0
   65.3179   32.5101   72.6622 C   0  0  0  0  0  0
   65.2730   32.1073   75.0004 C   0  0  0  0  0  0
   66.7123   34.9654   76.4363 C   0  0  0  0  0  0
   67.0109   35.1602   77.7557 C   0  0  0  0  0  0
   70.4754   31.1918   82.1949 H   0  0  0  0  0  0
  1  2  1  0  0  0
  2  3  1  0  0  0
  3  4  1  0  0  0
  3 10  1  0  0  0
  4  5  2  0  0  0
  4  9  1  0  0  0
  5  6  1  0  0  0
  6  7  2  0  0  0
  7  8  1  0  0  0
  8  9  2  0  0  0
 10 11  1  0  0  0
 10 18  1  0  0  0
 11 12  2  0  0  0
 11 17  1  0  0  0
 12 13  1  0  0  0
 13 14  2  0  0  0
 14 15  1  0  0  0
 14 16  1  0  0  0
 15 30  1  0  0  0
 16 17  2  0  0  0
 18 19  2  0  0  0
 18 29  1  0  0  0
 19 20  1  0  0  0
 20 21  2  0  0  0
 21 22  1  0  0  0
 21 28  1  0  0  0
 22 23  1  0  0  0
 23 24  1  0  0  0
 24 25  1  0  0  0
 25 26  1  0  0  0
 25 27  1  0  0  0
 28 29  2  0  0  0
M  END
>  <CHROM.0>
-102.93537340,-158.98400316,-93.72049081,177.02701137

>  <CHROM.1>
-109.46150111,-95.74519798,-106.44019950,-98.66117475,64.62615361,-178.87363741
98.11141792,71.14619340,56.87990867,84.17731734,68.22156874,35.74205142,78.50300741
0.54978899,-1.14333372,0.05970436

>  <FORMUL>
      OHT    C26 H29 N1 O2

>  <HET>
 OHT  A 600      29

>  <HETNAM>
     OHT 4-HYDROXYTAMOXIFEN

>  <Name>
OHT.pdb

>  <RI>
0

>  <Rbt.Current_Directory>
/home/malgorzata/Desktop/rDOCK_IFD/Wyniki/5a_estrogen_receptor/IFD

>  <Rbt.Executable>
rbdock ($Id: //depot/dev/client3/rdock/2013.1/src/exe/rbdock.cxx#4 $)

>  <Rbt.Library>
libRbt.so (2013.1, Build901 2013/11/27)

>  <Rbt.Parameter_File>
/home/malgorzata/Desktop/rDock_2013.1_src/data/scripts/hard_docking.prm

>  <Rbt.Receptor>
cavity.prm

>  <SCORE>
-5.26358

>  <SCORE.INTER>
0.47689

>  <SCORE.INTER.CONST>
1

>  <SCORE.INTER.POLAR>
0

>  <SCORE.INTER.REPUL>
0

>  <SCORE.INTER.ROT>
9

>  <SCORE.INTER.VDW>
-13.9231

>  <SCORE.INTER.norm>
0.0164445

>  <SCORE.INTRA>
-4.68053

>  <SCORE.INTRA.DIHEDRAL>
-1.95907

>  <SCORE.INTRA.DIHEDRAL.0>
14.7815

>  <SCORE.INTRA.POLAR>
0

>  <SCORE.INTRA.POLAR.0>
0

>  <SCORE.INTRA.REPUL>
0

>  <SCORE.INTRA.REPUL.0>
0

>  <SCORE.INTRA.VDW>
-3.70099

>  <SCORE.INTRA.VDW.0>
-0.0652974

>  <SCORE.INTRA.norm>
-0.161398

>  <SCORE.RESTR>
0.0711379

>  <SCORE.RESTR.CAVITY>
0.0711379

>  <SCORE.RESTR.norm>
0.00245303

>  <SCORE.SYSTEM>
-1.13108

>  <SCORE.SYSTEM.CONST>
0

>  <SCORE.SYSTEM.DIHEDRAL>
2.85433

>  <SCORE.SYSTEM.POLAR>
-0.0937034

>  <SCORE.SYSTEM.REPUL>
0.185214

>  <SCORE.SYSTEM.VDW>
-3.16572

>  <SCORE.SYSTEM.norm>
-0.0390026

>  <SCORE.heavy>
29

>  <SCORE.norm>
-0.181503

$$$$
OHT.pdb
  rDOCK(R)          3D
libRbt.so/2013.1/901 2013/11/27
 30 32  0  0  0  0  0  0  0  0999 V2000
   69.5573   34.0502   83.6108 C   0  0  0  0  0  0
   70.2565   33.9669   82.2817 C   0  0  0  0  0  0
   69.9265   35.1431   81.3863 C   0  0  0  0  0  0
   71.0445   36.1262   81.2513 C   0  0  0  0  0  0
   71.8404   36.1553   80.0865 C   0  0  0  0  0  0
   72.8517   37.1056   79.9418 C   0  0  0  0  0  0
   73.1007   38.0359   80.9316 C   0  0  0  0  0  0
   72.3358   38.0211   82.0736 C   0  0  0  0  0  0
   71.3172   37.0743   82.2298 C   0  0  0  0  0  0
   68.7177   35.2812   80.7663 C   0  0  0  0  0  0
   67.4156   35.4885   81.5004 C   0  0  0  0  0  0
   66.8569   36.7907   81.6909 C   0  0  0  0  0  0
   65.6724   36.9598   82.4222 C   0  0  0  0  0  0
   65.0353   35.8300   82.9694 C   0  0  0  0  0  0
   63.8964   36.0221   83.6931 O   0  0  0  0  0  0
   65.5769   34.5375   82.7849 C   0  0  0  0  0  0
   66.7518   34.3917   82.0583 C   0  0  0  0  0  0
   68.5681   35.2236   79.3091 C   0  0  0  0  0  0
   68.0906   36.3103   78.5802 C   0  0  0  0  0  0
   67.9679   36.2836   77.2196 C   0  0  0  0  0  0
   68.3305   35.1408   76.5249 C   0  0  0  0  0  0
   68.2739   35.0433   75.1641 O   0  0  0  0  0  0
   68.5007   36.1966   74.3594 C   0  0  0  0  0  0
   68.1222   35.8183   72.9530 C   0  0  0  0  0  0
   66.7212   35.5447   72.7856 N   0  0  0  0  0  0
   66.2177   36.0607   71.5119 C   0  0  0  0  0  0
   66.4976   34.0947   72.8109 C   0  0  0  0  0  0
   68.8138   34.0235   77.2279 C   0  0  0  0  0  0
   68.9268   34.0762   78.5889 C   0  0  0  0  0  0
   63.5638   36.8885   83.8221 H   0  0  0  0  0  0
  1  2  1  0  0  0
  2  3  1  0  0  0
  3  4  1  0  0  0
  3 10  1  0  0  0
  4  5  2  0  0  0
  4  9  1  0  0  0
  5  6  1  0  0  0
  6  7  2  0  0  0
  7  8  1  0  0  0
  8  9  2  0  0  0
 10 11  1  0  0  0
 10 18  1  0  0  0
 11 12  2  0  0  0
 11 17  1  0  0  0
 12 13  1  0  0  0
 13 14  2  0  0  0
 14 15  1  0  0  0
 14 16  1  0  0  0
 15 30  1  0  0  0
 16 17  2  0  0  0
 18 19  2  0  0  0
 18 29  1  0  0  0
 19 20  1  0  0  0
 20 21  2  0  0  0
 21 22  1  0  0  0
 21 28  1  0  0  0
 22 23  1  0  0  0
 23 24  1  0  0  0
 24 25  1  0  0  0
 25 26  1  0  0  0
 25 27  1  0  0  0
 28 29  2  0  0  0
M  END
>  <CHROM.0>
-93.13847195,-162.65928007,-86.67873480,-20.73498306

>  <CHROM.1>
106.39013386,102.95028725,65.17547189,96.83421498,-118.08516707,-0.64274067
31.87159307,-169.83936498,65.94731870,141.15789077,68.46094811,35.66720263
79.17804676,-1.42602788,-0.18492953,-1.59557851

>  <FORMUL>
      OHT    C26 H29 N1 O2

>  <HET>
 OHT  A 600      29

>  <HETNAM>
     OHT 4-HYDROXYTAMOXIFEN

>  <Name>
OHT.pdb

>  <RI>
0

>  <Rbt.Current_Directory>
/home/malgorzata/Desktop/rDOCK_IFD/Wyniki/5a_estrogen_receptor/IFD

>  <Rbt.Executable>
rbdock ($Id: //depot/dev/client3/rdock/2013.1/src/exe/rbdock.cxx#4 $)

>  <Rbt.Library>
libRbt.so (2013.1, Build901 2013/11/27)

>  <Rbt.Parameter_File>
/home/malgorzata/Desktop/rDock_2013.1_src/data/scripts/hard_docking.prm

>  <Rbt.Receptor>
cavity.prm

>  <SCORE>
-9.09371

>  <SCORE.INTER>
-2.40659

>  <SCORE.INTER.CONST>
1

>  <SCORE.INTER.POLAR>
-0.628479

>  <SCORE.INTER.REPUL>
0

>  <SCORE.INTER.ROT>
9

>  <SCORE.INTER.VDW>
-14.6698

>  <SCORE.INTER.norm>
-0.0829857

>  <SCORE.INTRA>
-5.71162

>  <SCORE.INTRA.DIHEDRAL>
-4.77349

>  <SCORE.INTRA.DIHEDRAL.0>
14.7815

>  <SCORE.INTRA.POLAR>
0

>  <SCORE.INTRA.POLAR.0>
0

>  <SCORE.INTRA.REPUL>
0

>  <SCORE.INTRA.REPUL.0>
0

>  <SCORE.INTRA.VDW>
-3.32488

>  <SCORE.INTRA.VDW.0>
-0.0652974

>  <SCORE.INTRA.norm>
-0.196952

>  <SCORE.RESTR>
0.00146052

>  <SCORE.RESTR.CAVITY>
0.00146052

>  <SCORE.RESTR.norm>
5.03628e-05

>  <SCORE.SYSTEM>
-0.976962

>  <SCORE.SYSTEM.CONST>
0

>  <SCORE.SYSTEM.DIHEDRAL>
2.88051

>  <SCORE.SYSTEM.POLAR>
-0.0597556

>  <SCORE.SYSTEM.REPUL>
0.163536

>  <SCORE.SYSTEM.VDW>
-3.03173

>  <SCORE.SYSTEM.norm>
-0.0336884

>  <SCORE.heavy>
29

>  <SCORE.norm>
-0.313576

$$$$
OHT.pdb
  rDOCK(R)          3D
libRbt.so/2013.1/901 2013/11/27
 30 32  0  0  0  0  0  0  0  0999 V2000
   67.1035   33.0101   69.2683 C   0  0  0  0  0  0
   66.1712   32.9217   70.4451 C   0  0  0  0  0  0
   66.8856   33.1530   71.7605 C   0  0  0  0  0  0
   67.0464   31.9142   72.5816 C   0  0  0  0  0  0
   68.1982   31.1095   72.4520 C   0  0  0  0  0  0
   68.3690   29.9807   73.2540 C   0  0  0  0  0  0
   67.4180   29.6217   74.1889 C   0  0  0  0  0  0
   66.2891   30.3936   74.3276 C   0  0  0  0  0  0
   66.1071   31.5293   73.5305 C   0  0  0  0  0  0
   67.3356   34.3824   72.1486 C   0  0  0  0  0  0
   67.5767   35.5282   71.1965 C   0  0  0  0  0  0
   66.4976   36.2490   70.5963 C   0  0  0  0  0  0
   66.7496   37.2753   69.6745 C   0  0  0  0  0  0
   68.0811   37.5910   69.3443 C   0  0  0  0  0  0
   68.2998   38.5786   68.4309 O   0  0  0  0  0  0
   69.1559   36.8871   69.9337 C   0  0  0  0  0  0
   68.8849   35.8730   70.8436 C   0  0  0  0  0  0
   67.6466   34.7032   73.5449 C   0  0  0  0  0  0
   68.7560   34.1611   74.1894 C   0  0  0  0  0  0
   69.0755   34.4678   75.4821 C   0  0  0  0  0  0
   68.2770   35.3515   76.1901 C   0  0  0  0  0  0
   68.5451   35.7396   77.4715 O   0  0  0  0  0  0
   67.6002   35.4789   78.5051 C   0  0  0  0  0  0
   68.1438   36.1194   79.7535 C   0  0  0  0  0  0
   67.2889   35.9693   80.8990 N   0  0  0  0  0  0
   68.0577   35.7158   82.1183 C   0  0  0  0  0  0
   66.5122   37.1985   81.0965 C   0  0  0  0  0  0
   67.1473   35.9160   75.5727 C   0  0  0  0  0  0
   66.8498   35.5925   74.2786 C   0  0  0  0  0  0
   67.6106   39.1738   68.2103 H   0  0  0  0  0  0
  1  2  1  0  0  0
  2  3  1  0  0  0
  3  4  1  0  0  0
  3 10  1  0  0  0
  4  5  2  0  0  0
  4  9  1  0  0  0
  5  6  1  0  0  0
  6  7  2  0  0  0
  7  8  1  0  0  0
  8  9  2  0  0  0
 10 11  1  0  0  0
 10 18  1  0  0  0
 11 12  2  0  0  0
 11 17  1  0  0  0
 12 13  1  0  0  0
 13 14  2  0  0  0
 14 15  1  0  0  0
 14 16  1  0  0  0
 15 30  1  0  0  0
 16 17  2  0  0  0
 18 19  2  0  0  0
 18 29  1  0  0  0
 19 20  1  0  0  0
 20 21  2  0  0  0
 21 22  1  0  0  0
 21 28  1  0  0  0
 22 23  1  0  0  0
 23 24  1  0  0  0
 24 25  1  0  0  0
 25 26  1  0  0  0
 25 27  1  0  0  0
 28 29  2  0  0  0
M  END
>  <CHROM.0>
-87.73953732,-163.59732180,-74.62589198,6.44914506

>  <CHROM.1>
-107.86414001,90.98929103,-19.95835145,72.89128245,70.60276923,16.06713994
-120.05982033,-175.68627520,178.90413866,140.72865969,67.59103274,34.62890591
73.97890759,1.67204992,-1.47041403,-1.53924491

>  <FORMUL>
      OHT    C26 H29 N1 O2

>  <HET>
 OHT  A 600      29

>  <HETNAM>
     OHT 4-HYDROXYTAMOXIFEN

>  <Name>
OHT.pdb

>  <RI>
0

>  <Rbt.Current_Directory>
/home/malgorzata/Desktop/rDOCK_IFD/Wyniki/5a_estrogen_receptor/IFD

>  <Rbt.Executable>
rbdock ($Id: //depot/dev/client3/rdock/2013.1/src/exe/rbdock.cxx#4 $)

>  <Rbt.Library>
libRbt.so (2013.1, Build901 2013/11/27)

>  <Rbt.Parameter_File>
/home/malgorzata/Desktop/rDock_2013.1_src/data/scripts/hard_docking.prm

>  <Rbt.Receptor>
cavity.prm

>  <SCORE>
-12.553

>  <SCORE.INTER>
-6.34257

>  <SCORE.INTER.CONST>
1

>  <SCORE.INTER.POLAR>
-0.514278

>  <SCORE.INTER.REPUL>
0.00593741

>  <SCORE.INTER.ROT>
9

>  <SCORE.INTER.VDW>
-19.0237

>  <SCORE.INTER.norm>
-0.218709

>  <SCORE.INTRA>
-4.97551

>  <SCORE.INTRA.DIHEDRAL>
-2.26413

>  <SCORE.INTRA.DIHEDRAL.0>
14.7815

>  <SCORE.INTRA.POLAR>
0

>  <SCORE.INTRA.POLAR.0>
0

>  <SCORE.INTRA.REPUL>
0

>  <SCORE.INTRA.REPUL.0>
0

>  <SCORE.INTRA.VDW>
-3.84345

>  <SCORE.INTRA.VDW.0>
-0.0652974

>  <SCORE.INTRA.norm>
-0.171569

>  <SCORE.RESTR>
0

>  <SCORE.RESTR.CAVITY>
0

>  <SCORE.RESTR.norm>
0

>  <SCORE.SYSTEM>
-1.2349

>  <SCORE.SYSTEM.CONST>
0

>  <SCORE.SYSTEM.DIHEDRAL>
2.20474

>  <SCORE.SYSTEM.POLAR>
-0.0507906

>  <SCORE.SYSTEM.REPUL>
0.157855

>  <SCORE.SYSTEM.VDW>
-2.95386

>  <SCORE.SYSTEM.norm>
-0.0425827

>  <SCORE.heavy>
29

>  <SCORE.norm>
-0.432861

$$$$
OHT.pdb
  rDOCK(R)          3D
libRbt.so/2013.1/901 2013/11/27
 30 32  0  0  0  0  0  0  0  0999 V2000
   71.6902   35.6509   82.5818 C   0  0  0  0  0  0
   70.6645   35.1172   81.6198 C   0  0  0  0  0  0
   70.1710   33.7406   82.0143 C   0  0  0  0  0  0
   70.7561   32.6361   81.1946 C   0  0  0  0  0  0
   71.8420   31.8771   81.6802 C   0  0  0  0  0  0
   72.3550   30.8150   80.9349 C   0  0  0  0  0  0
   71.8178   30.4827   79.7068 C   0  0  0  0  0  0
   70.7606   31.2125   79.2177 C   0  0  0  0  0  0
   70.2357   32.2787   79.9567 C   0  0  0  0  0  0
   69.2754   33.5405   83.0255 C   0  0  0  0  0  0
   68.3335   32.3633   83.0933 C   0  0  0  0  0  0
   68.7524   31.0909   83.5931 C   0  0  0  0  0  0
   67.8717   29.9996   83.5962 C   0  0  0  0  0  0
   66.5652   30.1695   83.1005 C   0  0  0  0  0  0
   65.7343   29.0890   83.0955 O   0  0  0  0  0  0
   66.1392   31.4235   82.6067 C   0  0  0  0  0  0
   67.0274   32.4916   82.6113 C   0  0  0  0  0  0
   69.1320   34.4732   84.1475 C   0  0  0  0  0  0
   69.7990   34.2729   85.3538 C   0  0  0  0  0  0
   69.6971   35.1442   86.4015 C   0  0  0  0  0  0
   68.9065   36.2749   86.2730 C   0  0  0  0  0  0
   68.7791   37.2138   87.2563 O   0  0  0  0  0  0
   69.9412   37.8143   87.8199 C   0  0  0  0  0  0
   70.6608   38.4983   86.6891 C   0  0  0  0  0  0
   71.9409   39.0361   87.0605 N   0  0  0  0  0  0
   73.0186   38.0716   86.8355 C   0  0  0  0  0  0
   72.2231   40.2313   86.2574 C   0  0  0  0  0  0
   68.2162   36.5080   85.0709 C   0  0  0  0  0  0
   68.3351   35.6208   84.0382 C   0  0  0  0  0  0
   66.0189   28.2774   83.4674 H   0  0  0  0  0  0
  1  2  1  0  0  0
  2  3  1  0  0  0
  3  4  1  0  0  0
  3 10  1  0  0  0
  4  5  2  0  0  0
  4  9  1  0  0  0
  5  6  1  0  0  0
  6  7  2  0  0  0
  7  8  1  0  0  0
  8  9  2  0  0  0
 10 11  1  0  0  0
 10 18  1  0  0  0
 11 12  2  0  0  0
 11 17  1  0  0  0
 12 13  1  0  0  0
 13 14  2  0  0  0
 14 15  1  0  0  0
 14 16  1  0  0  0
 15 30  1  0  0  0
 16 17  2  0  0  0
 18 19  2  0  0  0
 18 29  1  0  0  0
 19 20  1  0  0  0
 20 21  2  0  0  0
 21 22  1  0  0  0
 21 28  1  0  0  0
 22 23  1  0  0  0
 23 24  1  0  0  0
 24 25  1  0  0  0
 25 26  1  0  0  0
 25 27  1  0  0  0
 28 29  2  0  0  0
M  END
>  <CHROM.0>
-103.79767833,-62.38607161,139.68952166,5.69120662

>  <CHROM.1>
-103.24577093,98.99512269,153.07424792,82.15198290,-95.30145532,4.00991985
53.51880747,60.03727332,-173.55844346,91.31976099,69.69534399,34.11984618
83.75336539,-1.31454690,-0.54334407,-2.40743614

>  <FORMUL>
      OHT    C26 H29 N1 O2

>  <HET>
 OHT  A 600      29

>  <HETNAM>
     OHT 4-HYDROXYTAMOXIFEN

>  <Name>
OHT.pdb

>  <RI>
0

>  <Rbt.Current_Directory>
/home/malgorzata/Desktop/rDOCK_IFD/Wyniki/5a_estrogen_receptor/IFD

>  <Rbt.Executable>
rbdock ($Id: //depot/dev/client3/rdock/2013.1/src/exe/rbdock.cxx#4 $)

>  <Rbt.Library>
libRbt.so (2013.1, Build901 2013/11/27)

>  <Rbt.Parameter_File>
/home/malgorzata/Desktop/rDock_2013.1_src/data/scripts/hard_docking.prm

>  <Rbt.Receptor>
cavity.prm

>  <SCORE>
-16.3019

>  <SCORE.INTER>
3.86994

>  <SCORE.INTER.CONST>
1

>  <SCORE.INTER.POLAR>
0

>  <SCORE.INTER.REPUL>
0

>  <SCORE.INTER.ROT>
9

>  <SCORE.INTER.VDW>
-10.5301

>  <SCORE.INTER.norm>
0.133446

>  <SCORE.INTRA>
-5.39817

>  <SCORE.INTRA.DIHEDRAL>
-3.53209

>  <SCORE.INTRA.DIHEDRAL.0>
14.7815

>  <SCORE.INTRA.POLAR>
0

>  <SCORE.INTRA.POLAR.0>
0

>  <SCORE.INTRA.REPUL>
0

>  <SCORE.INTRA.REPUL.0>
0

>  <SCORE.INTRA.VDW>
-3.63213

>  <SCORE.INTRA.VDW.0>
-0.0652974

>  <SCORE.INTRA.norm>
-0.186144

>  <SCORE.RESTR>
5.23931

>  <SCORE.RESTR.CAVITY>
5.23931

>  <SCORE.RESTR.norm>
0.180666

>  <SCORE.SYSTEM>
-20.013

>  <SCORE.SYSTEM.CONST>
0

>  <SCORE.SYSTEM.DIHEDRAL>
1.01862

>  <SCORE.SYSTEM.REPUL>
1.04112

>  <SCORE.SYSTEM.VDW>
-25.7279

>  <SCORE.SYSTEM.norm>
-0.690102

>  <SCORE.heavy>
29

>  <SCORE.norm>
-0.562133

$$$$
OHT.pdb
  rDOCK(R)          3D
libRbt.so/2013.1/901 2013/11/27
 30 32  0  0  0  0  0  0  0  0999 V2000
   65.9048   35.4759   81.9546 C   0  0  0  0  0  0
   67.3564   35.7483   82.2389 C   0  0  0  0  0  0
   68.1761   35.8660   80.9706 C   0  0  0  0  0  0
   69.2233   34.8081   80.8332 C   0  0  0  0  0  0
   68.8641   33.4712   80.5600 C   0  0  0  0  0  0
   69.8451   32.4949   80.3834 C   0  0  0  0  0  0
   71.1866   32.8097   80.4742 C   0  0  0  0  0  0
   71.5545   34.1070   80.7411 C   0  0  0  0  0  0
   70.5801   35.0957   80.9182 C   0  0  0  0  0  0
   67.9684   36.8505   80.0475 C   0  0  0  0  0  0
   67.7362   38.2990   80.4014 C   0  0  0  0  0  0
   66.5162   38.9686   80.0736 C   0  0  0  0  0  0
   66.3470   40.3294   80.3673 C   0  0  0  0  0  0
   67.3945   41.0332   80.9910 C   0  0  0  0  0  0
   67.2139   42.3595   81.2480 O   0  0  0  0  0  0
   68.6039   40.3809   81.3223 C   0  0  0  0  0  0
   68.7519   39.0327   81.0218 C   0  0  0  0  0  0
   67.9349   36.5850   78.6061 C   0  0  0  0  0  0
   68.5283   37.4501   77.6899 C   0  0  0  0  0  0
   68.5286   37.2066   76.3453 C   0  0  0  0  0  0
   67.9221   36.0590   75.8605 C   0  0  0  0  0  0
   67.9092   35.7219   74.5374 O   0  0  0  0  0  0
   68.8825   36.2720   73.6547 C   0  0  0  0  0  0
   68.4769   35.8660   72.2637 C   0  0  0  0  0  0
   67.2865   36.5209   71.7949 N   0  0  0  0  0  0
   67.3255   36.7439   70.3489 C   0  0  0  0  0  0
   66.1166   35.6881   72.0968 C   0  0  0  0  0  0
   67.3104   35.1643   76.7557 C   0  0  0  0  0  0
   67.3241   35.4314   78.0960 C   0  0  0  0  0  0
   66.4005   42.7719   81.0327 H   0  0  0  0  0  0
  1  2  1  0  0  0
  2  3  1  0  0  0
  3  4  1  0  0  0
  3 10  1  0  0  0
  4  5  2  0  0  0
  4  9  1  0  0  0
  5  6  1  0  0  0
  6  7  2  0  0  0
  7  8  1  0  0  0
  8  9  2  0  0  0
 10 11  1  0  0  0
 10 18  1  0  0  0
 11 12  2  0  0  0
 11 17  1  0  0  0
 12 13  1  0  0  0
 13 14  2  0  0  0
 14 15  1  0  0  0
 14 16  1  0  0  0
 15 30  1  0  0  0
 16 17  2  0  0  0
 18 19  2  0  0  0
 18 29  1  0  0  0
 19 20  1  0  0  0
 20 21  2  0  0  0
 21 22  1  0  0  0
 21 28  1  0  0  0
 22 23  1  0  0  0
 23 24  1  0  0  0
 24 25  1  0  0  0
 25 26  1  0  0  0
 25 27  1  0  0  0
 28 29  2  0  0  0
M  END
>  <CHROM.0>
-100.47646911,-159.82162992,105.37081495,1.77365919

>  <CHROM.1>
-116.53827402,71.20695318,43.67965565,-117.77107876,-139.48025238,1.74557663
21.40284346,-172.07980364,69.86964989,147.35582081,68.12393443,36.64328486
78.26251412,-1.38045619,1.19356297,-1.90131875

>  <FORMUL>
      OHT    C26 H29 N1 O2

>  <HET>
 OHT  A 600      29

>  <HETNAM>
     OHT 4-HYDROXYTAMOXIFEN

>  <Name>
OHT.pdb

>  <RI>
0

>  <Rbt.Current_Directory>
/home/malgorzata/Desktop/rDOCK_IFD/Wyniki/5a_estrogen_receptor/IFD

>  <Rbt.Executable>
rbdock ($Id: //depot/dev/client3/rdock/2013.1/src/exe/rbdock.cxx#4 $)

>  <Rbt.Library>
libRbt.so (2013.1, Build901 2013/11/27)

>  <Rbt.Parameter_File>
/home/malgorzata/Desktop/rDock_2013.1_src/data/scripts/hard_docking.prm

>  <Rbt.Receptor>
cavity.prm

>  <SCORE>
-8.16985

>  <SCORE.INTER>
-3.41961

>  <SCORE.INTER.CONST>
1

>  <SCORE.INTER.POLAR>
0

>  <SCORE.INTER.REPUL>
0

>  <SCORE.INTER.ROT>
9

>  <SCORE.INTER.VDW>
-17.8196

>  <SCORE.INTER.norm>
-0.117918

>  <SCORE.INTRA>
-5.42007

>  <SCORE.INTRA.DIHEDRAL>
-5.98768

>  <SCORE.INTRA.DIHEDRAL.0>
14.7815

>  <SCORE.INTRA.POLAR>
0

>  <SCORE.INTRA.POLAR.0>
0

>  <SCORE.INTRA.REPUL>
0

>  <SCORE.INTRA.REPUL.0>
0

>  <SCORE.INTRA.VDW>
-2.42623

>  <SCORE.INTRA.VDW.0>
-0.0652974

>  <SCORE.INTRA.norm>
-0.186899

>  <SCORE.RESTR>
1.7743

>  <SCORE.RESTR.CAVITY>
1.7743

>  <SCORE.RESTR.norm>
0.0611826

>  <SCORE.SYSTEM>
-1.10447

>  <SCORE.SYSTEM.CONST>
0

>  <SCORE.SYSTEM.DIHEDRAL>
2.69133

>  <SCORE.SYSTEM.POLAR>
-0.0865673

>  <SCORE.SYSTEM.REPUL>
0.180359

>  <SCORE.SYSTEM.VDW>
-3.0576

>  <SCORE.SYSTEM.norm>
-0.0380852

>  <SCORE.heavy>
29

>  <SCORE.norm>
-0.281719

$$$$
OHT.pdb
  rDOCK(R)          3D
libRbt.so/2013.1/901 2013/11/27
 30 32  0  0  0  0  0  0  0  0999 V2000
   70.0323   32.4453   80.8321 C   0  0  0  0  0  0
   70.7198   33.4813   79.9858 C   0  0  0  0  0  0
   70.1172   34.8592   80.1652 C   0  0  0  0  0  0
   71.0329   35.8316   80.8364 C   0  0  0  0  0  0
   72.0690   36.4607   80.1139 C   0  0  0  0  0  0
   72.8916   37.4046   80.7297 C   0  0  0  0  0  0
   72.7159   37.7434   82.0570 C   0  0  0  0  0  0
   71.7124   37.1392   82.7762 C   0  0  0  0  0  0
   70.8793   36.1925   82.1694 C   0  0  0  0  0  0
   68.8547   35.1714   79.7488 C   0  0  0  0  0  0
   67.6864   35.3694   80.6833 C   0  0  0  0  0  0
   67.3316   34.3913   81.6639 C   0  0  0  0  0  0
   66.2095   34.5767   82.4843 C   0  0  0  0  0  0
   65.4322   35.7405   82.3329 C   0  0  0  0  0  0
   64.3352   35.8885   83.1280 O   0  0  0  0  0  0
   65.7753   36.7157   81.3689 C   0  0  0  0  0  0
   66.8899   36.5124   80.5652 C   0  0  0  0  0  0
   68.5082   35.3295   78.3331 C   0  0  0  0  0  0
   68.5061   36.5784   77.7165 C   0  0  0  0  0  0
   68.2100   36.7421   76.3926 C   0  0  0  0  0  0
   67.9010   35.6332   75.6213 C   0  0  0  0  0  0
   67.6296   35.7040   74.2850 O   0  0  0  0  0  0
   68.6375   35.3669   73.3366 C   0  0  0  0  0  0
   67.9619   35.3187   71.9929 C   0  0  0  0  0  0
   67.3191   36.5504   71.6251 N   0  0  0  0  0  0
   68.0613   37.2570   70.5801 C   0  0  0  0  0  0
   65.9718   36.2684   71.1166 C   0  0  0  0  0  0
   67.8905   34.3571   76.2106 C   0  0  0  0  0  0
   68.1902   34.2208   77.5371 C   0  0  0  0  0  0
   63.8312   36.6775   83.0889 H   0  0  0  0  0  0
  1  2  1  0  0  0
  2  3  1  0  0  0
  3  4  1  0  0  0
  3 10  1  0  0  0
  4  5  2  0  0  0
  4  9  1  0  0  0
  5  6  1  0  0  0
  6  7  2  0  0  0
  7  8  1  0  0  0
  8  9  2  0  0  0
 10 11  1  0  0  0
 10 18  1  0  0  0
 11 12  2  0  0  0
 11 17  1  0  0  0
 12 13  1  0  0  0
 13 14  2  0  0  0
 14 15  1  0  0  0
 14 16  1  0  0  0
 15 30  1  0  0  0
 16 17  2  0  0  0
 18 19  2  0  0  0
 18 29  1  0  0  0
 19 20  1  0  0  0
 20 21  2  0  0  0
 21 22  1  0  0  0
 21 28  1  0  0  0
 22 23  1  0  0  0
 23 24  1  0  0  0
 24 25  1  0  0  0
 25 26  1  0  0  0
 25 27  1  0  0  0
 28 29  2  0  0  0
M  END
>  <CHROM.0>
-99.07271821,-164.25505368,-93.03500486,-10.47399712

>  <CHROM.1>
112.44384254,78.89981387,106.63097056,-52.50525969,-94.74828429,176.01179761
100.25599208,170.53500032,58.14626387,106.79965219,68.54803695,35.69261354
78.38665256,-1.40647835,-0.11508711,-1.51718310

>  <FORMUL>
      OHT    C26 H29 N1 O2

>  <HET>
 OHT  A 600      29

>  <HETNAM>
     OHT 4-HYDROXYTAMOXIFEN

>  <Name>
OHT.pdb

>  <RI>
0

>  <Rbt.Current_Directory>
/home/malgorzata/Desktop/rDOCK_IFD/Wyniki/5a_estrogen_receptor/IFD

>  <Rbt.Executable>
rbdock ($Id: //depot/dev/client3/rdock/2013.1/src/exe/rbdock.cxx#4 $)

>  <Rbt.Library>
libRbt.so (2013.1, Build901 2013/11/27)

>  <Rbt.Parameter_File>
/home/malgorzata/Desktop/rDock_2013.1_src/data/scripts/hard_docking.prm

>  <Rbt.Receptor>
cavity.prm

>  <SCORE>
-11.3513

>  <SCORE.INTER>
-5.33343

>  <SCORE.INTER.CONST>
1

>  <SCORE.INTER.POLAR>
-0.632456

>  <SCORE.INTER.REPUL>
0

>  <SCORE.INTER.ROT>
9

>  <SCORE.INTER.VDW>
-17.5831

>  <SCORE.INTER.norm>
-0.183911

>  <SCORE.INTRA>
-4.80769

>  <SCORE.INTRA.DIHEDRAL>
-0.984419

>  <SCORE.INTRA.DIHEDRAL.0>
14.7815

>  <SCORE.INTRA.POLAR>
0

>  <SCORE.INTRA.POLAR.0>
0

>  <SCORE.INTRA.REPUL>
0

>  <SCORE.INTRA.REPUL.0>
0

>  <SCORE.INTRA.VDW>
-4.31548

>  <SCORE.INTRA.VDW.0>
-0.0652974

>  <SCORE.INTRA.norm>
-0.165782

>  <SCORE.RESTR>
0

>  <SCORE.RESTR.CAVITY>
0

>  <SCORE.RESTR.norm>
0

>  <SCORE.SYSTEM>
-1.21021

>  <SCORE.SYSTEM.CONST>
0

>  <SCORE.SYSTEM.DIHEDRAL>
2.21717

>  <SCORE.SYSTEM.POLAR>
-0.0444732

>  <SCORE.SYSTEM.REPUL>
0.153839

>  <SCORE.SYSTEM.VDW>
-2.93678

>  <SCORE.SYSTEM.norm>
-0.0417312

>  <SCORE.heavy>
29

>  <SCORE.norm>
-0.391425

$$$$
