612.pdb
  rDOCK(R)          3D
libRbt.so/2013.1/901 2013/11/27
 23 24  0  0  0  0  0  0  0  0999 V2000
   -1.8423  -32.9575   25.9885 C   0  0  0  0  0  0
   -2.7022  -31.7986   26.4705 C   0  0  0  0  0  0
   -1.8578  -30.7368   27.1249 C   0  0  0  0  0  0
   -1.0522  -31.3230   28.2802 C   0  0  0  0  0  0
   -0.1817  -32.4720   27.7882 C   0  0  0  0  0  0
   -1.0425  -33.5381   27.1466 C   0  0  0  0  0  0
   -3.0228  -34.2246   25.4030 S   0  0  0  0  0  0
   -2.6194  -34.6285   23.6330 C   0  0  0  0  0  0
   -1.9329  -35.7880   23.3004 C   0  0  0  0  0  0
   -1.7037  -36.9711   24.2596 C   0  0  0  0  0  0
   -0.2663  -37.1714   24.6787 C   0  0  0  0  0  0
   -2.3983  -38.2241   23.8486 C   0  0  0  0  0  0
   -1.5588  -36.0295   21.9172 C   0  0  0  0  0  0
   -0.9069  -36.9981   21.5491 O   0  0  0  0  0  0
   -2.9781  -33.6956   22.6417 N   0  0  0  0  0  0
   -2.6546  -33.8918   21.2843 C   0  0  0  0  0  0
   -2.9783  -33.0978   20.4032 O   0  0  0  0  0  0
   -1.9496  -35.0514   20.9988 N   0  0  0  0  0  0
   -3.7614  -32.4729   22.9522 C   0  0  0  0  0  0
   -5.1565  -32.7443   23.0267 O   0  0  0  0  0  0
   -5.8399  -31.7785   23.8314 C   0  0  0  0  0  0
   -7.3151  -32.0863   23.9017 C   0  0  0  0  0  0
   -1.7003  -35.1999   20.0581 H   0  0  0  0  0  0
  1  2  1  0  0  0
  1  6  1  0  0  0
  1  7  1  0  0  0
  2  3  1  0  0  0
  3  4  1  0  0  0
  4  5  1  0  0  0
  5  6  1  0  0  0
  7  8  1  0  0  0
  8  9  2  0  0  0
  8 15  1  0  0  0
  9 10  1  0  0  0
  9 13  1  0  0  0
 10 11  1  0  0  0
 10 12  1  0  0  0
 13 14  2  0  0  0
 13 18  1  0  0  0
 15 16  1  0  0  0
 15 19  1  0  0  0
 16 17  2  0  0  0
 16 18  1  0  0  0
 18 23  1  0  0  0
 19 20  1  0  0  0
 20 21  1  0  0  0
 21 22  1  0  0  0
M  END
>  <CHROM.0>
175.43166064,-169.75059772,-6.03814720

>  <CHROM.1>
123.57520356,102.32606178,-111.88060930,-81.86621746,155.98759602,-179.79969336
-2.58649011,-33.99156402,24.15810042,-1.62901545,0.75140082,-2.23917132

>  <FORMUL>
      612    C16 H26 N2 O3 S1

>  <HET>
 612  A 999      22

>  <HETNAM>
     612 6-(cyclohexylsulfanyl)-1-(ethoxymethyl)-5-(1-methylethy
   2 612 l)pyrimidine-2,4(1H,3H)-dione

>  <HETSYN>
     612 TNK-6123

>  <Name>
612.pdb

>  <RI>
0

>  <Rbt.Current_Directory>
/home/malgorzata/Desktop/rDOCK_IFD/Wyniki/10_hiv_rt

>  <Rbt.Executable>
rbdock ($Id: //depot/dev/client3/rdock/2013.1/src/exe/rbdock.cxx#4 $)

>  <Rbt.Library>
libRbt.so (2013.1, Build901 2013/11/27)

>  <Rbt.Parameter_File>
/home/malgorzata/Desktop/rDock_2013.1_src/data/scripts/soft_docking.prm

>  <Rbt.Receptor>
cavity.prm

>  <SCORE>
-34.7269

>  <SCORE.INTER>
-26.9379

>  <SCORE.INTER.CONST>
1

>  <SCORE.INTER.POLAR>
-0.641686

>  <SCORE.INTER.REPUL>
0

>  <SCORE.INTER.ROT>
6

>  <SCORE.INTER.VDW>
-36.1562

>  <SCORE.INTER.norm>
-1.22445

>  <SCORE.INTRA>
0.0226385

>  <SCORE.INTRA.DIHEDRAL>
-1.97207

>  <SCORE.INTRA.DIHEDRAL.0>
11.8882

>  <SCORE.INTRA.POLAR>
0

>  <SCORE.INTRA.POLAR.0>
0

>  <SCORE.INTRA.REPUL>
0

>  <SCORE.INTRA.REPUL.0>
0

>  <SCORE.INTRA.VDW>
0.417052

>  <SCORE.INTRA.VDW.0>
-3.04122

>  <SCORE.INTRA.norm>
0.00102902

>  <SCORE.RESTR>
0

>  <SCORE.RESTR.CAVITY>
0

>  <SCORE.RESTR.norm>
0

>  <SCORE.SYSTEM>
-7.81163

>  <SCORE.SYSTEM.CONST>
0

>  <SCORE.SYSTEM.DIHEDRAL>
0.257094

>  <SCORE.SYSTEM.POLAR>
-1.43633

>  <SCORE.SYSTEM.VDW>
-3.05663

>  <SCORE.SYSTEM.norm>
-0.355074

>  <SCORE.heavy>
22

>  <SCORE.norm>
-1.5785

$$$$
612.pdb
  rDOCK(R)          3D
libRbt.so/2013.1/901 2013/11/27
 23 24  0  0  0  0  0  0  0  0999 V2000
   -1.0024  -32.7231   26.3630 C   0  0  0  0  0  0
   -1.6875  -31.7580   27.3192 C   0  0  0  0  0  0
   -0.7361  -30.6816   27.7718 C   0  0  0  0  0  0
    0.5013  -31.2926   28.4222 C   0  0  0  0  0  0
    1.1913  -32.2452   27.4545 C   0  0  0  0  0  0
    0.2302  -33.3296   27.0191 C   0  0  0  0  0  0
   -2.2190  -34.0549   26.0663 S   0  0  0  0  0  0
   -2.2757  -34.4011   24.2399 C   0  0  0  0  0  0
   -1.6728  -35.5310   23.7050 C   0  0  0  0  0  0
   -1.1789  -36.7311   24.5346 C   0  0  0  0  0  0
   -2.1868  -37.2701   25.5223 C   0  0  0  0  0  0
    0.1898  -36.5531   25.0971 C   0  0  0  0  0  0
   -1.6618  -35.7258   22.2650 C   0  0  0  0  0  0
   -1.1055  -36.6650   21.7110 O   0  0  0  0  0  0
   -2.8974  -33.4539   23.4045 N   0  0  0  0  0  0
   -2.9297  -33.6056   22.0038 C   0  0  0  0  0  0
   -3.4862  -32.7990   21.2615 O   0  0  0  0  0  0
   -2.2967  -34.7363   21.5097 N   0  0  0  0  0  0
   -3.6009  -32.2631   23.9448 C   0  0  0  0  0  0
   -4.7831  -32.6234   24.6507 O   0  0  0  0  0  0
   -5.6793  -33.3776   23.8290 C   0  0  0  0  0  0
   -7.1138  -33.0993   24.2042 C   0  0  0  0  0  0
   -2.2945  -34.8532   20.5322 H   0  0  0  0  0  0
  1  2  1  0  0  0
  1  6  1  0  0  0
  1  7  1  0  0  0
  2  3  1  0  0  0
  3  4  1  0  0  0
  4  5  1  0  0  0
  5  6  1  0  0  0
  7  8  1  0  0  0
  8  9  2  0  0  0
  8 15  1  0  0  0
  9 10  1  0  0  0
  9 13  1  0  0  0
 10 11  1  0  0  0
 10 12  1  0  0  0
 13 14  2  0  0  0
 13 18  1  0  0  0
 15 16  1  0  0  0
 15 19  1  0  0  0
 16 17  2  0  0  0
 16 18  1  0  0  0
 18 23  1  0  0  0
 19 20  1  0  0  0
 20 21  1  0  0  0
 21 22  1  0  0  0
M  END
>  <CHROM.0>
-176.81900444,136.60995042,-19.20540499

>  <CHROM.1>
134.21240991,104.51186682,49.48079771,-67.90761192,-56.86100686,-147.81876195
-2.14837697,-33.86441415,24.71471058,0.92784908,-0.54729089,0.76346083

>  <FORMUL>
      612    C16 H26 N2 O3 S1

>  <HET>
 612  A 999      22

>  <HETNAM>
     612 6-(cyclohexylsulfanyl)-1-(ethoxymethyl)-5-(1-methylethy
   2 612 l)pyrimidine-2,4(1H,3H)-dione

>  <HETSYN>
     612 TNK-6123

>  <Name>
612.pdb

>  <RI>
0

>  <Rbt.Current_Directory>
/home/malgorzata/Desktop/rDOCK_IFD/Wyniki/10_hiv_rt

>  <Rbt.Executable>
rbdock ($Id: //depot/dev/client3/rdock/2013.1/src/exe/rbdock.cxx#4 $)

>  <Rbt.Library>
libRbt.so (2013.1, Build901 2013/11/27)

>  <Rbt.Parameter_File>
/home/malgorzata/Desktop/rDock_2013.1_src/data/scripts/soft_docking.prm

>  <Rbt.Receptor>
cavity.prm

>  <SCORE>
-39.1826

>  <SCORE.INTER>
-31.1627

>  <SCORE.INTER.CONST>
1

>  <SCORE.INTER.POLAR>
-0.979796

>  <SCORE.INTER.REPUL>
0

>  <SCORE.INTER.ROT>
6

>  <SCORE.INTER.VDW>
-39.2314

>  <SCORE.INTER.norm>
-1.41649

>  <SCORE.INTRA>
0.122579

>  <SCORE.INTRA.DIHEDRAL>
-0.707981

>  <SCORE.INTRA.DIHEDRAL.0>
11.8882

>  <SCORE.INTRA.POLAR>
0

>  <SCORE.INTRA.POLAR.0>
0

>  <SCORE.INTRA.REPUL>
0

>  <SCORE.INTRA.REPUL.0>
0

>  <SCORE.INTRA.VDW>
0.264176

>  <SCORE.INTRA.VDW.0>
-3.04122

>  <SCORE.INTRA.norm>
0.00557179

>  <SCORE.RESTR>
0

>  <SCORE.RESTR.CAVITY>
0

>  <SCORE.RESTR.norm>
0

>  <SCORE.SYSTEM>
-8.14255

>  <SCORE.SYSTEM.CONST>
0

>  <SCORE.SYSTEM.DIHEDRAL>
2.78195

>  <SCORE.SYSTEM.POLAR>
-1.93244

>  <SCORE.SYSTEM.VDW>
-2.96322

>  <SCORE.SYSTEM.norm>
-0.370116

>  <SCORE.heavy>
22

>  <SCORE.norm>
-1.78103

$$$$
612.pdb
  rDOCK(R)          3D
libRbt.so/2013.1/901 2013/11/27
 23 24  0  0  0  0  0  0  0  0999 V2000
   -1.1604  -33.2399   26.7228 C   0  0  0  0  0  0
   -1.8592  -32.4650   27.8301 C   0  0  0  0  0  0
   -0.9637  -31.3864   28.3808 C   0  0  0  0  0  0
    0.3477  -31.9790   28.8870 C   0  0  0  0  0  0
    1.0500  -32.7399   27.7699 C   0  0  0  0  0  0
    0.1464  -33.8294   27.2355 C   0  0  0  0  0  0
   -2.2933  -34.6120   26.3038 S   0  0  0  0  0  0
   -2.2033  -34.9075   24.4699 C   0  0  0  0  0  0
   -1.3563  -35.8705   23.9392 C   0  0  0  0  0  0
   -0.6555  -36.9657   24.7649 C   0  0  0  0  0  0
    0.8360  -37.0612   24.5453 C   0  0  0  0  0  0
   -1.3593  -38.2794   24.7447 C   0  0  0  0  0  0
   -1.2473  -36.0154   22.4975 C   0  0  0  0  0  0
   -0.4850  -36.8011   21.9496 O   0  0  0  0  0  0
   -2.9758  -34.0860   23.6273 N   0  0  0  0  0  0
   -2.9197  -34.1990   22.2237 C   0  0  0  0  0  0
   -3.6028  -33.5042   21.4740 O   0  0  0  0  0  0
   -2.0447  -35.1577   21.7351 N   0  0  0  0  0  0
   -3.9341  -33.0847   24.1601 C   0  0  0  0  0  0
   -5.2625  -33.5940   24.1996 O   0  0  0  0  0  0
   -6.2279  -32.5429   24.3026 C   0  0  0  0  0  0
   -7.6207  -33.1057   24.4419 C   0  0  0  0  0  0
   -1.9791  -35.2422   20.7565 H   0  0  0  0  0  0
  1  2  1  0  0  0
  1  6  1  0  0  0
  1  7  1  0  0  0
  2  3  1  0  0  0
  3  4  1  0  0  0
  4  5  1  0  0  0
  5  6  1  0  0  0
  7  8  1  0  0  0
  8  9  2  0  0  0
  8 15  1  0  0  0
  9 10  1  0  0  0
  9 13  1  0  0  0
 10 11  1  0  0  0
 10 12  1  0  0  0
 13 14  2  0  0  0
 13 18  1  0  0  0
 15 16  1  0  0  0
 15 19  1  0  0  0
 16 17  2  0  0  0
 16 18  1  0  0  0
 18 23  1  0  0  0
 19 20  1  0  0  0
 20 21  1  0  0  0
 21 22  1  0  0  0
M  END
>  <CHROM.0>
164.54506738,92.21304459,-6.33108977

>  <CHROM.1>
143.68154148,94.74391379,-128.48309958,-96.50380963,-161.75613474,-175.97246590
-2.12834661,-34.35040911,24.88549241,0.87898254,-0.47884911,0.90192758

>  <FORMUL>
      612    C16 H26 N2 O3 S1

>  <HET>
 612  A 999      22

>  <HETNAM>
     612 6-(cyclohexylsulfanyl)-1-(ethoxymethyl)-5-(1-methylethy
   2 612 l)pyrimidine-2,4(1H,3H)-dione

>  <HETSYN>
     612 TNK-6123

>  <Name>
612.pdb

>  <RI>
0

>  <Rbt.Current_Directory>
/home/malgorzata/Desktop/rDOCK_IFD/Wyniki/10_hiv_rt

>  <Rbt.Executable>
rbdock ($Id: //depot/dev/client3/rdock/2013.1/src/exe/rbdock.cxx#4 $)

>  <Rbt.Library>
libRbt.so (2013.1, Build901 2013/11/27)

>  <Rbt.Parameter_File>
/home/malgorzata/Desktop/rDock_2013.1_src/data/scripts/soft_docking.prm

>  <Rbt.Receptor>
cavity.prm

>  <SCORE>
-38.0349

>  <SCORE.INTER>
-31.8596

>  <SCORE.INTER.CONST>
1

>  <SCORE.INTER.POLAR>
-0.979796

>  <SCORE.INTER.REPUL>
0

>  <SCORE.INTER.ROT>
6

>  <SCORE.INTER.VDW>
-39.9283

>  <SCORE.INTER.norm>
-1.44816

>  <SCORE.INTRA>
0.0061971

>  <SCORE.INTRA.DIHEDRAL>
-3.56043

>  <SCORE.INTRA.DIHEDRAL.0>
11.8882

>  <SCORE.INTRA.POLAR>
0

>  <SCORE.INTRA.POLAR.0>
0

>  <SCORE.INTRA.REPUL>
0

>  <SCORE.INTRA.REPUL.0>
0

>  <SCORE.INTRA.VDW>
0.718284

>  <SCORE.INTRA.VDW.0>
-3.04122

>  <SCORE.INTRA.norm>
0.000281686

>  <SCORE.RESTR>
0

>  <SCORE.RESTR.CAVITY>
0

>  <SCORE.RESTR.norm>
0

>  <SCORE.SYSTEM>
-6.18151

>  <SCORE.SYSTEM.CONST>
0

>  <SCORE.SYSTEM.DIHEDRAL>
5.2156

>  <SCORE.SYSTEM.POLAR>
-1.65897

>  <SCORE.SYSTEM.VDW>
-3.14881

>  <SCORE.SYSTEM.norm>
-0.280978

>  <SCORE.heavy>
22

>  <SCORE.norm>
-1.72886

$$$$
612.pdb
  rDOCK(R)          3D
libRbt.so/2013.1/901 2013/11/27
 23 24  0  0  0  0  0  0  0  0999 V2000
   -2.4845  -31.8504   26.3967 C   0  0  0  0  0  0
   -2.9525  -31.4124   27.7766 C   0  0  0  0  0  0
   -1.9713  -30.4543   28.3994 C   0  0  0  0  0  0
   -0.5818  -31.0790   28.4781 C   0  0  0  0  0  0
   -0.1125  -31.5007   27.0917 C   0  0  0  0  0  0
   -1.0983  -32.4738   26.4832 C   0  0  0  0  0  0
   -3.6704  -33.1382   25.8702 S   0  0  0  0  0  0
   -3.2614  -33.6337   24.1250 C   0  0  0  0  0  0
   -2.0978  -34.3309   23.8313 C   0  0  0  0  0  0
   -1.2032  -35.0159   24.8815 C   0  0  0  0  0  0
    0.2305  -34.5403   24.8926 C   0  0  0  0  0  0
   -1.3534  -36.4981   24.9272 C   0  0  0  0  0  0
   -1.7673  -34.6263   22.4474 C   0  0  0  0  0  0
   -0.7362  -35.1876   22.1003 O   0  0  0  0  0  0
   -4.1366  -33.2305   23.0988 N   0  0  0  0  0  0
   -3.8707  -33.5080   21.7431 C   0  0  0  0  0  0
   -4.6343  -33.1817   20.8365 O   0  0  0  0  0  0
   -2.6874  -34.1865   21.4922 N   0  0  0  0  0  0
   -5.4172  -32.5333   23.3796 C   0  0  0  0  0  0
   -6.2214  -33.2578   24.3037 O   0  0  0  0  0  0
   -7.6084  -32.9365   24.1616 C   0  0  0  0  0  0
   -8.4349  -33.6572   25.1977 C   0  0  0  0  0  0
   -2.4753  -34.3767   20.5499 H   0  0  0  0  0  0
  1  2  1  0  0  0
  1  6  1  0  0  0
  1  7  1  0  0  0
  2  3  1  0  0  0
  3  4  1  0  0  0
  4  5  1  0  0  0
  5  6  1  0  0  0
  7  8  1  0  0  0
  8  9  2  0  0  0
  8 15  1  0  0  0
  9 10  1  0  0  0
  9 13  1  0  0  0
 10 11  1  0  0  0
 10 12  1  0  0  0
 13 14  2  0  0  0
 13 18  1  0  0  0
 15 16  1  0  0  0
 15 19  1  0  0  0
 16 17  2  0  0  0
 16 18  1  0  0  0
 18 23  1  0  0  0
 19 20  1  0  0  0
 20 21  1  0  0  0
 21 22  1  0  0  0
M  END
>  <CHROM.0>
-166.59754848,165.86433688,-104.57382913

>  <CHROM.1>
175.24044987,68.93797538,-122.28888692,-53.67261021,-155.56546559,-176.93912382
-3.06913306,-33.28508884,24.68496521,0.82780121,-0.19223374,1.05199693

>  <FORMUL>
      612    C16 H26 N2 O3 S1

>  <HET>
 612  A 999      22

>  <HETNAM>
     612 6-(cyclohexylsulfanyl)-1-(ethoxymethyl)-5-(1-methylethy
   2 612 l)pyrimidine-2,4(1H,3H)-dione

>  <HETSYN>
     612 TNK-6123

>  <Name>
612.pdb

>  <RI>
0

>  <Rbt.Current_Directory>
/home/malgorzata/Desktop/rDOCK_IFD/Wyniki/10_hiv_rt

>  <Rbt.Executable>
rbdock ($Id: //depot/dev/client3/rdock/2013.1/src/exe/rbdock.cxx#4 $)

>  <Rbt.Library>
libRbt.so (2013.1, Build901 2013/11/27)

>  <Rbt.Parameter_File>
/home/malgorzata/Desktop/rDock_2013.1_src/data/scripts/soft_docking.prm

>  <Rbt.Receptor>
cavity.prm

>  <SCORE>
-32.3738

>  <SCORE.INTER>
-28.561

>  <SCORE.INTER.CONST>
1

>  <SCORE.INTER.POLAR>
-0.774773

>  <SCORE.INTER.REPUL>
0.146646

>  <SCORE.INTER.ROT>
6

>  <SCORE.INTER.VDW>
-38.06

>  <SCORE.INTER.norm>
-1.29823

>  <SCORE.INTRA>
2.29184

>  <SCORE.INTRA.DIHEDRAL>
-4.24378

>  <SCORE.INTRA.DIHEDRAL.0>
11.8882

>  <SCORE.INTRA.POLAR>
0

>  <SCORE.INTRA.POLAR.0>
0

>  <SCORE.INTRA.REPUL>
0

>  <SCORE.INTRA.REPUL.0>
0

>  <SCORE.INTRA.VDW>
3.14059

>  <SCORE.INTRA.VDW.0>
-3.04122

>  <SCORE.INTRA.norm>
0.104174

>  <SCORE.RESTR>
0

>  <SCORE.RESTR.CAVITY>
0

>  <SCORE.RESTR.norm>
0

>  <SCORE.SYSTEM>
-6.10459

>  <SCORE.SYSTEM.CONST>
0

>  <SCORE.SYSTEM.DIHEDRAL>
4.9995

>  <SCORE.SYSTEM.POLAR>
-1.63897

>  <SCORE.SYSTEM.VDW>
-3.03184

>  <SCORE.SYSTEM.norm>
-0.277482

>  <SCORE.heavy>
22

>  <SCORE.norm>
-1.47154

$$$$
612.pdb
  rDOCK(R)          3D
libRbt.so/2013.1/901 2013/11/27
 23 24  0  0  0  0  0  0  0  0999 V2000
   -1.3852  -33.0331   26.4548 C   0  0  0  0  0  0
   -2.4896  -32.9480   27.4979 C   0  0  0  0  0  0
   -2.5226  -31.5848   28.1375 C   0  0  0  0  0  0
   -1.1711  -31.2466   28.7592 C   0  0  0  0  0  0
   -0.0724  -31.3181   27.7066 C   0  0  0  0  0  0
   -0.0398  -32.6959   27.0824 C   0  0  0  0  0  0
   -1.3573  -34.7817   25.9220 S   0  0  0  0  0  0
   -1.4109  -34.8293   24.0636 C   0  0  0  0  0  0
   -2.3000  -34.0368   23.3512 C   0  0  0  0  0  0
   -3.0918  -32.8594   23.9505 C   0  0  0  0  0  0
   -4.5731  -33.1119   24.1055 C   0  0  0  0  0  0
   -2.7594  -31.5387   23.3451 C   0  0  0  0  0  0
   -2.3748  -34.1626   21.9054 C   0  0  0  0  0  0
   -3.1678  -33.5414   21.2098 O   0  0  0  0  0  0
   -0.5641  -35.7364   23.3990 N   0  0  0  0  0  0
   -0.5853  -35.8831   21.9976 C   0  0  0  0  0  0
    0.1617  -36.6550   21.3996 O   0  0  0  0  0  0
   -1.5033  -35.0889   21.3267 N   0  0  0  0  0  0
    0.4383  -36.5588   24.1226 C   0  0  0  0  0  0
    1.7192  -36.4941   23.5055 O   0  0  0  0  0  0
    2.2935  -35.1884   23.6172 C   0  0  0  0  0  0
    3.7686  -35.2225   23.3025 C   0  0  0  0  0  0
   -1.5448  -35.1874   20.3481 H   0  0  0  0  0  0
  1  2  1  0  0  0
  1  6  1  0  0  0
  1  7  1  0  0  0
  2  3  1  0  0  0
  3  4  1  0  0  0
  4  5  1  0  0  0
  5  6  1  0  0  0
  7  8  1  0  0  0
  8  9  2  0  0  0
  8 15  1  0  0  0
  9 10  1  0  0  0
  9 13  1  0  0  0
 10 11  1  0  0  0
 10 12  1  0  0  0
 13 14  2  0  0  0
 13 18  1  0  0  0
 15 16  1  0  0  0
 15 19  1  0  0  0
 16 17  2  0  0  0
 16 18  1  0  0  0
 18 23  1  0  0  0
 19 20  1  0  0  0
 20 21  1  0  0  0
 21 22  1  0  0  0
M  END
>  <CHROM.0>
-155.30754561,2.59644378,71.06346092

>  <CHROM.1>
129.50710400,-45.51697517,-109.03473471,-131.34328525,67.28797901,164.75911690
-1.03108863,-34.07911444,24.42788158,-1.95050895,0.44306344,-2.04561082

>  <FORMUL>
      612    C16 H26 N2 O3 S1

>  <HET>
 612  A 999      22

>  <HETNAM>
     612 6-(cyclohexylsulfanyl)-1-(ethoxymethyl)-5-(1-methylethy
   2 612 l)pyrimidine-2,4(1H,3H)-dione

>  <HETSYN>
     612 TNK-6123

>  <Name>
612.pdb

>  <RI>
0

>  <Rbt.Current_Directory>
/home/malgorzata/Desktop/rDOCK_IFD/Wyniki/10_hiv_rt

>  <Rbt.Executable>
rbdock ($Id: //depot/dev/client3/rdock/2013.1/src/exe/rbdock.cxx#4 $)

>  <Rbt.Library>
libRbt.so (2013.1, Build901 2013/11/27)

>  <Rbt.Parameter_File>
/home/malgorzata/Desktop/rDock_2013.1_src/data/scripts/soft_docking.prm

>  <Rbt.Receptor>
cavity.prm

>  <SCORE>
-29.2534

>  <SCORE.INTER>
-25.9607

>  <SCORE.INTER.CONST>
1

>  <SCORE.INTER.POLAR>
-0.979796

>  <SCORE.INTER.REPUL>
0

>  <SCORE.INTER.ROT>
6

>  <SCORE.INTER.VDW>
-34.0294

>  <SCORE.INTER.norm>
-1.18003

>  <SCORE.INTRA>
0.350916

>  <SCORE.INTRA.DIHEDRAL>
-3.46457

>  <SCORE.INTRA.DIHEDRAL.0>
11.8882

>  <SCORE.INTRA.POLAR>
0

>  <SCORE.INTRA.POLAR.0>
0

>  <SCORE.INTRA.REPUL>
0

>  <SCORE.INTRA.REPUL.0>
0

>  <SCORE.INTRA.VDW>
1.04383

>  <SCORE.INTRA.VDW.0>
-3.04122

>  <SCORE.INTRA.norm>
0.0159507

>  <SCORE.RESTR>
0.610177

>  <SCORE.RESTR.CAVITY>
0.122035

>  <SCORE.RESTR.norm>
0.0277353

>  <SCORE.SYSTEM>
-4.25372

>  <SCORE.SYSTEM.CONST>
0

>  <SCORE.SYSTEM.DIHEDRAL>
5.10156

>  <SCORE.SYSTEM.POLAR>
-1.15703

>  <SCORE.SYSTEM.VDW>
-2.87059

>  <SCORE.SYSTEM.norm>
-0.193351

>  <SCORE.heavy>
22

>  <SCORE.norm>
-1.3297

$$$$
612.pdb
  rDOCK(R)          3D
libRbt.so/2013.1/901 2013/11/27
 23 24  0  0  0  0  0  0  0  0999 V2000
   -1.8088  -36.1002   23.7036 C   0  0  0  0  0  0
   -1.0254  -36.6903   22.5404 C   0  0  0  0  0  0
   -1.1257  -38.1931   22.5304 C   0  0  0  0  0  0
   -0.6401  -38.7759   23.8540 C   0  0  0  0  0  0
   -1.4387  -38.1933   25.0128 C   0  0  0  0  0  0
   -1.3180  -36.6852   25.0207 C   0  0  0  0  0  0
   -1.4301  -34.3118   23.6837 S   0  0  0  0  0  0
   -2.8363  -33.4056   24.4963 C   0  0  0  0  0  0
   -3.9514  -33.0124   23.7696 C   0  0  0  0  0  0
   -4.2920  -33.5161   22.3545 C   0  0  0  0  0  0
   -4.7736  -34.9467   22.2951 C   0  0  0  0  0  0
   -3.2641  -33.1767   21.3299 C   0  0  0  0  0  0
   -4.9916  -32.2310   24.4169 C   0  0  0  0  0  0
   -5.9784  -31.7995   23.8349 O   0  0  0  0  0  0
   -2.7132  -33.0762   25.8593 N   0  0  0  0  0  0
   -3.7020  -32.3359   26.5375 C   0  0  0  0  0  0
   -3.6203  -32.0576   27.7322 O   0  0  0  0  0  0
   -4.7882  -31.9442   25.7693 N   0  0  0  0  0  0
   -1.5622  -33.5278   26.6817 C   0  0  0  0  0  0
   -0.3509  -32.8920   26.2892 O   0  0  0  0  0  0
    0.6886  -33.0973   27.2507 C   0  0  0  0  0  0
    1.7087  -31.9879   27.1829 C   0  0  0  0  0  0
   -5.4833  -31.4127   26.2205 H   0  0  0  0  0  0
  1  2  1  0  0  0
  1  6  1  0  0  0
  1  7  1  0  0  0
  2  3  1  0  0  0
  3  4  1  0  0  0
  4  5  1  0  0  0
  5  6  1  0  0  0
  7  8  1  0  0  0
  8  9  2  0  0  0
  8 15  1  0  0  0
  9 10  1  0  0  0
  9 13  1  0  0  0
 10 11  1  0  0  0
 10 12  1  0  0  0
 13 14  2  0  0  0
 13 18  1  0  0  0
 15 16  1  0  0  0
 15 19  1  0  0  0
 16 17  2  0  0  0
 16 18  1  0  0  0
 18 23  1  0  0  0
 19 20  1  0  0  0
 20 21  1  0  0  0
 21 22  1  0  0  0
M  END
>  <CHROM.0>
-179.56740774,139.89287400,40.20625192

>  <CHROM.1>
154.92089081,-86.71812270,72.35355375,68.67527426,167.31756649,-154.67629354
-2.34714861,-34.16783938,24.61479273,1.05006449,0.57826609,-2.45879324

>  <FORMUL>
      612    C16 H26 N2 O3 S1

>  <HET>
 612  A 999      22

>  <HETNAM>
     612 6-(cyclohexylsulfanyl)-1-(ethoxymethyl)-5-(1-methylethy
   2 612 l)pyrimidine-2,4(1H,3H)-dione

>  <HETSYN>
     612 TNK-6123

>  <Name>
612.pdb

>  <RI>
0

>  <Rbt.Current_Directory>
/home/malgorzata/Desktop/rDOCK_IFD/Wyniki/10_hiv_rt

>  <Rbt.Executable>
rbdock ($Id: //depot/dev/client3/rdock/2013.1/src/exe/rbdock.cxx#4 $)

>  <Rbt.Library>
libRbt.so (2013.1, Build901 2013/11/27)

>  <Rbt.Parameter_File>
/home/malgorzata/Desktop/rDock_2013.1_src/data/scripts/soft_docking.prm

>  <Rbt.Receptor>
cavity.prm

>  <SCORE>
-34.5419

>  <SCORE.INTER>
-26.3997

>  <SCORE.INTER.CONST>
1

>  <SCORE.INTER.POLAR>
-0.157405

>  <SCORE.INTER.REPUL>
0

>  <SCORE.INTER.ROT>
6

>  <SCORE.INTER.VDW>
-37.2646

>  <SCORE.INTER.norm>
-1.19999

>  <SCORE.INTRA>
-0.411597

>  <SCORE.INTRA.DIHEDRAL>
-2.18329

>  <SCORE.INTRA.DIHEDRAL.0>
11.8882

>  <SCORE.INTRA.POLAR>
0

>  <SCORE.INTRA.POLAR.0>
0

>  <SCORE.INTRA.REPUL>
0

>  <SCORE.INTRA.REPUL.0>
0

>  <SCORE.INTRA.VDW>
0.025061

>  <SCORE.INTRA.VDW.0>
-3.04122

>  <SCORE.INTRA.norm>
-0.0187089

>  <SCORE.RESTR>
0

>  <SCORE.RESTR.CAVITY>
0

>  <SCORE.RESTR.norm>
0

>  <SCORE.SYSTEM>
-7.73062

>  <SCORE.SYSTEM.CONST>
0

>  <SCORE.SYSTEM.DIHEDRAL>
3.94449

>  <SCORE.SYSTEM.POLAR>
-1.91768

>  <SCORE.SYSTEM.VDW>
-3.18275

>  <SCORE.SYSTEM.norm>
-0.351392

>  <SCORE.heavy>
22

>  <SCORE.norm>
-1.57009

$$$$
612.pdb
  rDOCK(R)          3D
libRbt.so/2013.1/901 2013/11/27
 23 24  0  0  0  0  0  0  0  0999 V2000
   -2.7442  -32.3674   26.7016 C   0  0  0  0  0  0
   -3.5770  -32.1535   27.9569 C   0  0  0  0  0  0
   -3.3965  -30.7571   28.4917 C   0  0  0  0  0  0
   -1.9241  -30.4712   28.7702 C   0  0  0  0  0  0
   -1.0984  -30.6716   27.5061 C   0  0  0  0  0  0
   -1.2764  -32.0816   26.9874 C   0  0  0  0  0  0
   -2.9244  -34.1414   26.2985 S   0  0  0  0  0  0
   -2.7652  -34.3433   24.4565 C   0  0  0  0  0  0
   -1.8875  -35.2689   23.9096 C   0  0  0  0  0  0
   -1.2027  -36.3965   24.7046 C   0  0  0  0  0  0
    0.2916  -36.2387   24.8596 C   0  0  0  0  0  0
   -1.6317  -37.7656   24.3006 C   0  0  0  0  0  0
   -1.7253  -35.3399   22.4674 C   0  0  0  0  0  0
   -0.9339  -36.0887   21.9090 O   0  0  0  0  0  0
   -3.5175  -33.4890   23.6284 N   0  0  0  0  0  0
   -3.4099  -33.5306   22.2240 C   0  0  0  0  0  0
   -4.0746  -32.8064   21.4856 O   0  0  0  0  0  0
   -2.5059  -34.4538   21.7203 N   0  0  0  0  0  0
   -4.5069  -32.5263   24.1754 C   0  0  0  0  0  0
   -5.7599  -33.1484   24.4375 O   0  0  0  0  0  0
   -6.6388  -32.2812   25.1604 C   0  0  0  0  0  0
   -8.0321  -32.8569   25.2186 C   0  0  0  0  0  0
   -2.4043  -34.4882   20.7417 H   0  0  0  0  0  0
  1  2  1  0  0  0
  1  6  1  0  0  0
  1  7  1  0  0  0
  2  3  1  0  0  0
  3  4  1  0  0  0
  4  5  1  0  0  0
  5  6  1  0  0  0
  7  8  1  0  0  0
  8  9  2  0  0  0
  8 15  1  0  0  0
  9 10  1  0  0  0
  9 13  1  0  0  0
 10 11  1  0  0  0
 10 12  1  0  0  0
 13 14  2  0  0  0
 13 18  1  0  0  0
 15 16  1  0  0  0
 15 19  1  0  0  0
 16 17  2  0  0  0
 16 18  1  0  0  0
 18 23  1  0  0  0
 19 20  1  0  0  0
 20 21  1  0  0  0
 21 22  1  0  0  0
M  END
>  <CHROM.0>
176.98776306,-72.47856827,-22.00872117

>  <CHROM.1>
150.40994839,128.77765335,-111.91978435,-82.62768217,170.59141661,170.09022751
-2.99321544,-33.62783913,24.93913867,-1.89723689,0.44790076,-2.18095256

>  <FORMUL>
      612    C16 H26 N2 O3 S1

>  <HET>
 612  A 999      22

>  <HETNAM>
     612 6-(cyclohexylsulfanyl)-1-(ethoxymethyl)-5-(1-methylethy
   2 612 l)pyrimidine-2,4(1H,3H)-dione

>  <HETSYN>
     612 TNK-6123

>  <Name>
612.pdb

>  <RI>
0

>  <Rbt.Current_Directory>
/home/malgorzata/Desktop/rDOCK_IFD/Wyniki/10_hiv_rt

>  <Rbt.Executable>
rbdock ($Id: //depot/dev/client3/rdock/2013.1/src/exe/rbdock.cxx#4 $)

>  <Rbt.Library>
libRbt.so (2013.1, Build901 2013/11/27)

>  <Rbt.Parameter_File>
/home/malgorzata/Desktop/rDock_2013.1_src/data/scripts/soft_docking.prm

>  <Rbt.Receptor>
cavity.prm

>  <SCORE>
-33.7001

>  <SCORE.INTER>
-29.4148

>  <SCORE.INTER.CONST>
1

>  <SCORE.INTER.POLAR>
-0.884297

>  <SCORE.INTER.REPUL>
0.0501181

>  <SCORE.INTER.ROT>
6

>  <SCORE.INTER.VDW>
-38.0588

>  <SCORE.INTER.norm>
-1.33704

>  <SCORE.INTRA>
-0.136482

>  <SCORE.INTRA.DIHEDRAL>
-4.57724

>  <SCORE.INTRA.DIHEDRAL.0>
11.8882

>  <SCORE.INTRA.POLAR>
0

>  <SCORE.INTRA.POLAR.0>
0

>  <SCORE.INTRA.REPUL>
0

>  <SCORE.INTRA.REPUL.0>
0

>  <SCORE.INTRA.VDW>
0.778967

>  <SCORE.INTRA.VDW.0>
-3.04122

>  <SCORE.INTRA.norm>
-0.00620373

>  <SCORE.RESTR>
0.502441

>  <SCORE.RESTR.CAVITY>
0.100488

>  <SCORE.RESTR.norm>
0.0228382

>  <SCORE.SYSTEM>
-4.65129

>  <SCORE.SYSTEM.CONST>
0

>  <SCORE.SYSTEM.DIHEDRAL>
5.05633

>  <SCORE.SYSTEM.POLAR>
-1.17847

>  <SCORE.SYSTEM.VDW>
-3.17264

>  <SCORE.SYSTEM.norm>
-0.211422

>  <SCORE.heavy>
22

>  <SCORE.norm>
-1.53182

$$$$
612.pdb
  rDOCK(R)          3D
libRbt.so/2013.1/901 2013/11/27
 23 24  0  0  0  0  0  0  0  0999 V2000
   -1.9600  -33.2237   26.3159 C   0  0  0  0  0  0
   -3.3034  -32.5606   26.5817 C   0  0  0  0  0  0
   -3.1296  -31.2869   27.3665 C   0  0  0  0  0  0
   -2.3959  -31.5553   28.6768 C   0  0  0  0  0  0
   -1.0455  -32.2044   28.4031 C   0  0  0  0  0  0
   -1.2345  -33.4897   27.6276 C   0  0  0  0  0  0
   -2.3588  -34.8280   25.5354 S   0  0  0  0  0  0
   -1.6508  -34.8355   23.8157 C   0  0  0  0  0  0
   -0.4585  -35.4875   23.5337 C   0  0  0  0  0  0
    0.2313  -36.4903   24.4778 C   0  0  0  0  0  0
   -0.2631  -37.9124   24.3543 C   0  0  0  0  0  0
    0.3553  -36.0086   25.8828 C   0  0  0  0  0  0
    0.1097  -35.4004   22.1992 C   0  0  0  0  0  0
    1.1820  -35.8996   21.8836 O   0  0  0  0  0  0
   -2.3277  -34.1106   22.8168 N   0  0  0  0  0  0
   -1.8279  -34.0105   21.5030 C   0  0  0  0  0  0
   -2.4168  -33.3992   20.6135 O   0  0  0  0  0  0
   -0.6237  -34.6578   21.2701 N   0  0  0  0  0  0
   -3.6329  -33.4481   23.0670 C   0  0  0  0  0  0
   -4.7145  -34.3710   23.0023 O   0  0  0  0  0  0
   -4.7076  -35.1072   21.7754 C   0  0  0  0  0  0
   -5.3447  -34.3072   20.6663 C   0  0  0  0  0  0
   -0.2494  -34.5872   20.3623 H   0  0  0  0  0  0
  1  2  1  0  0  0
  1  6  1  0  0  0
  1  7  1  0  0  0
  2  3  1  0  0  0
  3  4  1  0  0  0
  4  5  1  0  0  0
  5  6  1  0  0  0
  7  8  1  0  0  0
  8  9  2  0  0  0
  8 15  1  0  0  0
  9 10  1  0  0  0
  9 13  1  0  0  0
 10 11  1  0  0  0
 10 12  1  0  0  0
 13 14  2  0  0  0
 13 18  1  0  0  0
 15 16  1  0  0  0
 15 19  1  0  0  0
 16 17  2  0  0  0
 16 18  1  0  0  0
 18 23  1  0  0  0
 19 20  1  0  0  0
 20 21  1  0  0  0
 21 22  1  0  0  0
M  END
>  <CHROM.0>
-170.74316126,138.29920796,-173.36211495

>  <CHROM.1>
117.04016410,100.54261124,85.57268520,-80.18335809,-53.35764216,-82.01589444
-1.93798779,-34.33181254,24.19780463,1.56645758,-0.57333552,1.20287058

>  <FORMUL>
      612    C16 H26 N2 O3 S1

>  <HET>
 612  A 999      22

>  <HETNAM>
     612 6-(cyclohexylsulfanyl)-1-(ethoxymethyl)-5-(1-methylethy
   2 612 l)pyrimidine-2,4(1H,3H)-dione

>  <HETSYN>
     612 TNK-6123

>  <Name>
612.pdb

>  <RI>
0

>  <Rbt.Current_Directory>
/home/malgorzata/Desktop/rDOCK_IFD/Wyniki/10_hiv_rt

>  <Rbt.Executable>
rbdock ($Id: //depot/dev/client3/rdock/2013.1/src/exe/rbdock.cxx#4 $)

>  <Rbt.Library>
libRbt.so (2013.1, Build901 2013/11/27)

>  <Rbt.Parameter_File>
/home/malgorzata/Desktop/rDock_2013.1_src/data/scripts/soft_docking.prm

>  <Rbt.Receptor>
cavity.prm

>  <SCORE>
-29.4892

>  <SCORE.INTER>
-24.5128

>  <SCORE.INTER.CONST>
1

>  <SCORE.INTER.POLAR>
-0.318099

>  <SCORE.INTER.REPUL>
0

>  <SCORE.INTER.ROT>
6

>  <SCORE.INTER.VDW>
-34.8313

>  <SCORE.INTER.norm>
-1.11422

>  <SCORE.INTRA>
3.24648

>  <SCORE.INTRA.DIHEDRAL>
-1.88415

>  <SCORE.INTRA.DIHEDRAL.0>
11.8882

>  <SCORE.INTRA.POLAR>
0

>  <SCORE.INTRA.POLAR.0>
0

>  <SCORE.INTRA.REPUL>
0

>  <SCORE.INTRA.REPUL.0>
0

>  <SCORE.INTRA.VDW>
3.62331

>  <SCORE.INTRA.VDW.0>
-3.04122

>  <SCORE.INTRA.norm>
0.147567

>  <SCORE.RESTR>
0

>  <SCORE.RESTR.CAVITY>
0

>  <SCORE.RESTR.norm>
0

>  <SCORE.SYSTEM>
-8.22287

>  <SCORE.SYSTEM.CONST>
0

>  <SCORE.SYSTEM.DIHEDRAL>
2.26863

>  <SCORE.SYSTEM.POLAR>
-1.89856

>  <SCORE.SYSTEM.VDW>
-2.90208

>  <SCORE.SYSTEM.norm>
-0.373767

>  <SCORE.heavy>
22

>  <SCORE.norm>
-1.34042

$$$$
612.pdb
  rDOCK(R)          3D
libRbt.so/2013.1/901 2013/11/27
 23 24  0  0  0  0  0  0  0  0999 V2000
   -4.6152  -32.8345   24.2090 C   0  0  0  0  0  0
   -5.3240  -31.8548   25.1325 C   0  0  0  0  0  0
   -6.6790  -32.3762   25.5335 C   0  0  0  0  0  0
   -7.5325  -32.6657   24.3026 C   0  0  0  0  0  0
   -6.8247  -33.6590   23.3903 C   0  0  0  0  0  0
   -5.4720  -33.1175   22.9828 C   0  0  0  0  0  0
   -3.0933  -31.9767   23.6707 S   0  0  0  0  0  0
   -1.7687  -33.2521   23.3919 C   0  0  0  0  0  0
   -1.5557  -33.8023   22.1356 C   0  0  0  0  0  0
   -2.1397  -33.2386   20.8266 C   0  0  0  0  0  0
   -1.8185  -31.7851   20.5693 C   0  0  0  0  0  0
   -3.5691  -33.5955   20.6010 C   0  0  0  0  0  0
   -0.5712  -34.8583   21.9715 C   0  0  0  0  0  0
   -0.3616  -35.4326   20.9109 O   0  0  0  0  0  0
   -1.0248  -33.6894   24.5041 N   0  0  0  0  0  0
   -0.0463  -34.6975   24.3942 C   0  0  0  0  0  0
    0.6268  -35.0764   25.3508 O   0  0  0  0  0  0
    0.1189  -35.2353   23.1266 N   0  0  0  0  0  0
   -1.1856  -33.0849   25.8508 C   0  0  0  0  0  0
    0.0487  -32.5911   26.3589 O   0  0  0  0  0  0
   -0.1433  -31.4366   27.1820 C   0  0  0  0  0  0
    1.1702  -30.9571   27.7484 C   0  0  0  0  0  0
    0.7870  -35.9521   23.0315 H   0  0  0  0  0  0
  1  2  1  0  0  0
  1  6  1  0  0  0
  1  7  1  0  0  0
  2  3  1  0  0  0
  3  4  1  0  0  0
  4  5  1  0  0  0
  5  6  1  0  0  0
  7  8  1  0  0  0
  8  9  2  0  0  0
  8 15  1  0  0  0
  9 10  1  0  0  0
  9 13  1  0  0  0
 10 11  1  0  0  0
 10 12  1  0  0  0
 13 14  2  0  0  0
 13 18  1  0  0  0
 15 16  1  0  0  0
 15 19  1  0  0  0
 16 17  2  0  0  0
 16 18  1  0  0  0
 18 23  1  0  0  0
 19 20  1  0  0  0
 20 21  1  0  0  0
 21 22  1  0  0  0
M  END
>  <CHROM.0>
153.42825152,-155.40652227,-47.91681926

>  <CHROM.1>
148.57196641,93.20600135,54.97369598,-123.60231840,147.49142525,178.05805572
-2.35832410,-33.16444704,23.84190699,2.95684946,0.19362401,-1.95291638

>  <FORMUL>
      612    C16 H26 N2 O3 S1

>  <HET>
 612  A 999      22

>  <HETNAM>
     612 6-(cyclohexylsulfanyl)-1-(ethoxymethyl)-5-(1-methylethy
   2 612 l)pyrimidine-2,4(1H,3H)-dione

>  <HETSYN>
     612 TNK-6123

>  <Name>
612.pdb

>  <RI>
0

>  <Rbt.Current_Directory>
/home/malgorzata/Desktop/rDOCK_IFD/Wyniki/10_hiv_rt

>  <Rbt.Executable>
rbdock ($Id: //depot/dev/client3/rdock/2013.1/src/exe/rbdock.cxx#4 $)

>  <Rbt.Library>
libRbt.so (2013.1, Build901 2013/11/27)

>  <Rbt.Parameter_File>
/home/malgorzata/Desktop/rDock_2013.1_src/data/scripts/soft_docking.prm

>  <Rbt.Receptor>
cavity.prm

>  <SCORE>
-20.5587

>  <SCORE.INTER>
-20.2941

>  <SCORE.INTER.CONST>
1

>  <SCORE.INTER.POLAR>
0

>  <SCORE.INTER.REPUL>
0

>  <SCORE.INTER.ROT>
6

>  <SCORE.INTER.VDW>
-31.6941

>  <SCORE.INTER.norm>
-0.922457

>  <SCORE.INTRA>
0.772387

>  <SCORE.INTRA.DIHEDRAL>
-1.5652

>  <SCORE.INTRA.DIHEDRAL.0>
11.8882

>  <SCORE.INTRA.POLAR>
0

>  <SCORE.INTRA.POLAR.0>
0

>  <SCORE.INTRA.REPUL>
0

>  <SCORE.INTRA.REPUL.0>
0

>  <SCORE.INTRA.VDW>
1.08543

>  <SCORE.INTRA.VDW.0>
-3.04122

>  <SCORE.INTRA.norm>
0.0351085

>  <SCORE.RESTR>
3.45542

>  <SCORE.RESTR.CAVITY>
0.691083

>  <SCORE.RESTR.norm>
0.157064

>  <SCORE.SYSTEM>
-4.49247

>  <SCORE.SYSTEM.CONST>
0

>  <SCORE.SYSTEM.DIHEDRAL>
4.51043

>  <SCORE.SYSTEM.POLAR>
-1.06066

>  <SCORE.SYSTEM.VDW>
-3.14142

>  <SCORE.SYSTEM.norm>
-0.204203

>  <SCORE.heavy>
22

>  <SCORE.norm>
-0.934487

$$$$
612.pdb
  rDOCK(R)          3D
libRbt.so/2013.1/901 2013/11/27
 23 24  0  0  0  0  0  0  0  0999 V2000
   -3.5180  -32.5170   25.1368 C   0  0  0  0  0  0
   -2.5718  -33.0812   24.0873 C   0  0  0  0  0  0
   -2.9390  -32.5908   22.7114 C   0  0  0  0  0  0
   -4.3839  -32.9488   22.3779 C   0  0  0  0  0  0
   -5.3272  -32.3678   23.4232 C   0  0  0  0  0  0
   -4.9574  -32.8792   24.7982 C   0  0  0  0  0  0
   -3.0598  -33.3497   26.6984 S   0  0  0  0  0  0
   -1.2656  -33.0026   27.0435 C   0  0  0  0  0  0
   -0.8561  -31.7750   27.5452 C   0  0  0  0  0  0
   -1.8037  -30.7160   28.1392 C   0  0  0  0  0  0
   -1.5323  -29.3021   27.6817 C   0  0  0  0  0  0
   -2.0135  -30.8508   29.6086 C   0  0  0  0  0  0
    0.5613  -31.5079   27.7215 C   0  0  0  0  0  0
    1.0074  -30.4347   28.1061 O   0  0  0  0  0  0
   -0.3244  -34.0000   26.7261 N   0  0  0  0  0  0
    1.0598  -33.7971   26.8957 C   0  0  0  0  0  0
    1.8937  -34.6645   26.6434 O   0  0  0  0  0  0
    1.4269  -32.5497   27.3781 N   0  0  0  0  0  0
   -0.7287  -35.3440   26.2411 C   0  0  0  0  0  0
   -0.7771  -35.4000   24.8197 O   0  0  0  0  0  0
   -1.0253  -36.7292   24.3520 C   0  0  0  0  0  0
    0.1143  -37.2167   23.4918 C   0  0  0  0  0  0
    2.3906  -32.3821   27.4893 H   0  0  0  0  0  0
  1  2  1  0  0  0
  1  6  1  0  0  0
  1  7  1  0  0  0
  2  3  1  0  0  0
  3  4  1  0  0  0
  4  5  1  0  0  0
  5  6  1  0  0  0
  7  8  1  0  0  0
  8  9  2  0  0  0
  8 15  1  0  0  0
  9 10  1  0  0  0
  9 13  1  0  0  0
 10 11  1  0  0  0
 10 12  1  0  0  0
 13 14  2  0  0  0
 13 18  1  0  0  0
 15 16  1  0  0  0
 15 19  1  0  0  0
 16 17  2  0  0  0
 16 18  1  0  0  0
 18 23  1  0  0  0
 19 20  1  0  0  0
 20 21  1  0  0  0
 21 22  1  0  0  0
M  END
>  <CHROM.0>
169.16248349,134.02287218,-14.43009305

>  <CHROM.1>
57.91451388,76.97814767,-135.61897715,92.37998068,173.72811176,-119.31039626
-1.47281025,-33.08581992,26.00899374,2.19088124,0.51265375,-2.46078270

>  <FORMUL>
      612    C16 H26 N2 O3 S1

>  <HET>
 612  A 999      22

>  <HETNAM>
     612 6-(cyclohexylsulfanyl)-1-(ethoxymethyl)-5-(1-methylethy
   2 612 l)pyrimidine-2,4(1H,3H)-dione

>  <HETSYN>
     612 TNK-6123

>  <Name>
612.pdb

>  <RI>
0

>  <Rbt.Current_Directory>
/home/malgorzata/Desktop/rDOCK_IFD/Wyniki/10_hiv_rt

>  <Rbt.Executable>
rbdock ($Id: //depot/dev/client3/rdock/2013.1/src/exe/rbdock.cxx#4 $)

>  <Rbt.Library>
libRbt.so (2013.1, Build901 2013/11/27)

>  <Rbt.Parameter_File>
/home/malgorzata/Desktop/rDock_2013.1_src/data/scripts/soft_docking.prm

>  <Rbt.Receptor>
cavity.prm

>  <SCORE>
-32.8337

>  <SCORE.INTER>
-25.6886

>  <SCORE.INTER.CONST>
1

>  <SCORE.INTER.POLAR>
0

>  <SCORE.INTER.REPUL>
0

>  <SCORE.INTER.ROT>
6

>  <SCORE.INTER.VDW>
-37.0886

>  <SCORE.INTER.norm>
-1.16766

>  <SCORE.INTRA>
0.975164

>  <SCORE.INTRA.DIHEDRAL>
0.456026

>  <SCORE.INTRA.DIHEDRAL.0>
11.8882

>  <SCORE.INTRA.POLAR>
0

>  <SCORE.INTRA.POLAR.0>
0

>  <SCORE.INTRA.REPUL>
0

>  <SCORE.INTRA.REPUL.0>
0

>  <SCORE.INTRA.VDW>
0.883958

>  <SCORE.INTRA.VDW.0>
-3.04122

>  <SCORE.INTRA.norm>
0.0443256

>  <SCORE.RESTR>
0

>  <SCORE.RESTR.CAVITY>
0

>  <SCORE.RESTR.norm>
0

>  <SCORE.SYSTEM>
-8.12034

>  <SCORE.SYSTEM.CONST>
0

>  <SCORE.SYSTEM.DIHEDRAL>
2.94821

>  <SCORE.SYSTEM.POLAR>
-1.90764

>  <SCORE.SYSTEM.VDW>
-3.10847

>  <SCORE.SYSTEM.norm>
-0.369106

>  <SCORE.heavy>
22

>  <SCORE.norm>
-1.49244

$$$$
