S58.pdb
  rDOCK(R)          3D
libRbt.so/2013.1/901 2013/11/27
 28 30  0  0  0  0  0  0  0  0999 V2000
   22.2412   28.1827   29.4730 C   0  0  0  0  0  0
   22.9434   29.3224   29.2234 C   0  0  0  0  0  0
   22.7715   27.1552   28.5305 C   0  0  0  0  0  0
   22.2928   25.7511   28.3118 C   0  0  0  0  0  0
   24.9706   29.7976   27.8818 C   0  0  0  0  0  0
   24.9773   31.1579   28.2153 C   0  0  0  0  0  0
   26.1001   31.9234   27.9381 C   0  0  0  0  0  0
   27.2231   31.3199   27.3265 C   0  0  0  0  0  0
   27.2134   29.9548   26.9944 C   0  0  0  0  0  0
   26.0774   29.1906   27.2723 C   0  0  0  0  0  0
   22.7018   30.6326   29.9016 C   0  0  0  0  0  0
   21.9436   31.6324   29.2408 C   0  0  0  0  0  0
   21.5797   32.8094   29.9209 C   0  0  0  0  0  0
   21.9611   32.9902   31.2477 C   0  0  0  0  0  0
   22.7351   32.0216   31.8961 C   0  0  0  0  0  0
   23.1078   30.8345   31.2223 C   0  0  0  0  0  0
   23.8621   29.0700   28.2299 N   0  0  0  0  0  0
   23.7301   27.7027   27.8341 N   0  0  0  0  0  0
   28.2304   33.6256   25.9063 N   0  0  0  0  0  0
   29.6999   31.4752   26.3740 O   0  0  0  0  0  0
   29.2021   32.8357   28.2150 O   0  0  0  0  0  0
   21.3004   34.4324   32.1918 Br  0  0  0  0  0  0
   23.3616   24.9210   28.2195 F   0  0  0  0  0  0
   21.5246   25.6960   27.2126 F   0  0  0  0  0  0
   21.5616   25.3955   29.3741 F   0  0  0  0  0  0
   28.7096   32.3147   26.9708 S   0  0  0  0  0  0
   28.8779   34.0009   25.2777 H   0  0  0  0  0  0
   27.3155   33.9791   25.9397 H   0  0  0  0  0  0
  1  3  1  0  0  0
  2  1  2  0  0  0
  2 17  1  0  0  0
  3 18  2  0  0  0
  3  4  1  0  0  0
  4 23  1  0  0  0
  4 25  1  0  0  0
  5 17  1  0  0  0
  5  6  2  0  0  0
  7  6  1  0  0  0
  8  7  2  0  0  0
  9 10  2  0  0  0
  9  8  1  0  0  0
 10  5  1  0  0  0
 11  2  1  0  0  0
 12 11  1  0  0  0
 13 12  2  0  0  0
 14 15  2  0  0  0
 14 13  1  0  0  0
 15 16  1  0  0  0
 16 11  2  0  0  0
 17 18  1  0  0  0
 19 28  1  0  0  0
 20 26  2  0  0  0
 22 14  1  0  0  0
 24  4  1  0  0  0
 26  8  1  0  0  0
 26 19  1  0  0  0
 26 21  2  0  0  0
 27 19  1  0  0  0
M  END
>  <CHROM.0>
125.11582863,-19.75472342,61.33923162

>  <CHROM.1>
-136.83724021,-23.86816729,-99.65913551,-59.06836064,-151.11848393,24.06286320
30.69283032,29.05553095,2.48752797,0.52136805,0.36104879

>  <FORMUL>
      S58    C16 H11 Br1 F3 N3 O2 S1

>  <HET>
 S58  A 701      28

>  <HETNAM>
     S58 1-PHENYLSULFONAMIDE-3-TRIFLUOROMETHYL-5-PARABROMOPHENYL
   2 S58 PYRAZOLE

>  <Name>
S58.pdb

>  <RI>
0

>  <Rbt.Current_Directory>
/home/malgorzata/Desktop/rDOCK_IFD/Wyniki/3c_COX2

>  <Rbt.Executable>
rbdock ($Id: //depot/dev/client3/rdock/2013.1/src/exe/rbdock.cxx#4 $)

>  <Rbt.Library>
libRbt.so (2013.1, Build901 2013/11/27)

>  <Rbt.Parameter_File>
/home/malgorzata/Desktop/rDock_2013.1_src/data/scripts/soft_docking.prm

>  <Rbt.Receptor>
cavity.prm

>  <SCORE>
-16.1075

>  <SCORE.INTER>
-14.4192

>  <SCORE.INTER.CONST>
1

>  <SCORE.INTER.POLAR>
-1.46624

>  <SCORE.INTER.REPUL>
0

>  <SCORE.INTER.ROT>
5

>  <SCORE.INTER.VDW>
-19.834

>  <SCORE.INTER.norm>
-0.554585

>  <SCORE.INTRA>
0.104202

>  <SCORE.INTRA.DIHEDRAL>
-1.62116

>  <SCORE.INTRA.DIHEDRAL.0>
18.1022

>  <SCORE.INTRA.POLAR>
0

>  <SCORE.INTRA.POLAR.0>
0

>  <SCORE.INTRA.REPUL>
0

>  <SCORE.INTRA.REPUL.0>
0

>  <SCORE.INTRA.VDW>
0.428434

>  <SCORE.INTRA.VDW.0>
-2.81782

>  <SCORE.INTRA.norm>
0.00400776

>  <SCORE.RESTR>
0

>  <SCORE.RESTR.CAVITY>
0

>  <SCORE.RESTR.norm>
0

>  <SCORE.SYSTEM>
-1.79245

>  <SCORE.SYSTEM.CONST>
0

>  <SCORE.SYSTEM.DIHEDRAL>
0.784747

>  <SCORE.SYSTEM.POLAR>
-0.171109

>  <SCORE.SYSTEM.VDW>
-1.60305

>  <SCORE.SYSTEM.norm>
-0.0689403

>  <SCORE.heavy>
26

>  <SCORE.norm>
-0.619518

$$$$
S58.pdb
  rDOCK(R)          3D
libRbt.so/2013.1/901 2013/11/27
 28 30  0  0  0  0  0  0  0  0999 V2000
   24.5890   30.1004   26.2190 C   0  0  0  0  0  0
   24.7482   28.9693   26.9604 C   0  0  0  0  0  0
   23.1609   30.1149   25.7880 C   0  0  0  0  0  0
   22.4694   31.0831   24.8754 C   0  0  0  0  0  0
   23.1496   27.3312   27.9070 C   0  0  0  0  0  0
   22.6208   27.7421   29.1372 C   0  0  0  0  0  0
   22.1549   26.7905   30.0321 C   0  0  0  0  0  0
   22.2166   25.4201   29.6894 C   0  0  0  0  0  0
   22.7466   25.0115   28.4540 C   0  0  0  0  0  0
   23.2183   25.9750   27.5591 C   0  0  0  0  0  0
   26.0459   28.5176   27.5494 C   0  0  0  0  0  0
   27.1069   28.1326   26.6908 C   0  0  0  0  0  0
   28.3794   27.8501   27.2212 C   0  0  0  0  0  0
   28.5981   27.9537   28.5923 C   0  0  0  0  0  0
   27.5480   28.3034   29.4484 C   0  0  0  0  0  0
   26.2641   28.5889   28.9268 C   0  0  0  0  0  0
   23.5416   28.3110   27.0319 N   0  0  0  0  0  0
   22.5749   29.0657   26.2974 N   0  0  0  0  0  0
   19.9004   23.8858   30.4822 N   0  0  0  0  0  0
   21.7789   24.6319   32.1900 O   0  0  0  0  0  0
   22.3519   22.9592   30.6532 O   0  0  0  0  0  0
   30.3149   27.7905   29.2507 Br  0  0  0  0  0  0
   23.1235   32.2712   24.9017 F   0  0  0  0  0  0
   21.1841   31.2156   25.2387 F   0  0  0  0  0  0
   22.5238   30.5887   23.6336 F   0  0  0  0  0  0
   21.5936   24.1621   30.8534 S   0  0  0  0  0  0
   19.2121   24.4042   30.9437 H   0  0  0  0  0  0
   19.6450   23.2156   29.8123 H   0  0  0  0  0  0
  1  3  1  0  0  0
  2  1  2  0  0  0
  2 17  1  0  0  0
  3 18  2  0  0  0
  3  4  1  0  0  0
  4 23  1  0  0  0
  4 25  1  0  0  0
  5 17  1  0  0  0
  5  6  2  0  0  0
  7  6  1  0  0  0
  8  7  2  0  0  0
  9 10  2  0  0  0
  9  8  1  0  0  0
 10  5  1  0  0  0
 11  2  1  0  0  0
 12 11  1  0  0  0
 13 12  2  0  0  0
 14 15  2  0  0  0
 14 13  1  0  0  0
 15 16  1  0  0  0
 16 11  2  0  0  0
 17 18  1  0  0  0
 19 28  1  0  0  0
 20 26  2  0  0  0
 22 14  1  0  0  0
 24  4  1  0  0  0
 26  8  1  0  0  0
 26 19  1  0  0  0
 26 21  2  0  0  0
 27 19  1  0  0  0
M  END
>  <CHROM.0>
35.50706313,-22.89274744,-71.42895828

>  <CHROM.1>
-25.57222895,85.80009819,-65.58963977,90.72415471,-91.78164480,24.70664201
27.69832658,28.16821793,0.30071340,-0.13717863,-0.73278900

>  <FORMUL>
      S58    C16 H11 Br1 F3 N3 O2 S1

>  <HET>
 S58  A 701      28

>  <HETNAM>
     S58 1-PHENYLSULFONAMIDE-3-TRIFLUOROMETHYL-5-PARABROMOPHENYL
   2 S58 PYRAZOLE

>  <Name>
S58.pdb

>  <RI>
0

>  <Rbt.Current_Directory>
/home/malgorzata/Desktop/rDOCK_IFD/Wyniki/3c_COX2

>  <Rbt.Executable>
rbdock ($Id: //depot/dev/client3/rdock/2013.1/src/exe/rbdock.cxx#4 $)

>  <Rbt.Library>
libRbt.so (2013.1, Build901 2013/11/27)

>  <Rbt.Parameter_File>
/home/malgorzata/Desktop/rDock_2013.1_src/data/scripts/soft_docking.prm

>  <Rbt.Receptor>
cavity.prm

>  <SCORE>
-23.6228

>  <SCORE.INTER>
-21.4095

>  <SCORE.INTER.CONST>
1

>  <SCORE.INTER.POLAR>
-0.768832

>  <SCORE.INTER.REPUL>
0

>  <SCORE.INTER.ROT>
5

>  <SCORE.INTER.VDW>
-29.1955

>  <SCORE.INTER.norm>
-0.823442

>  <SCORE.INTRA>
1.15823

>  <SCORE.INTRA.DIHEDRAL>
8.7008

>  <SCORE.INTRA.DIHEDRAL.0>
18.1022

>  <SCORE.INTRA.POLAR>
0

>  <SCORE.INTRA.POLAR.0>
0

>  <SCORE.INTRA.REPUL>
0

>  <SCORE.INTRA.REPUL.0>
0

>  <SCORE.INTRA.VDW>
-0.581925

>  <SCORE.INTRA.VDW.0>
-2.81782

>  <SCORE.INTRA.norm>
0.0445475

>  <SCORE.RESTR>
0.043487

>  <SCORE.RESTR.CAVITY>
0.043487

>  <SCORE.RESTR.norm>
0.00167258

>  <SCORE.SYSTEM>
-3.41502

>  <SCORE.SYSTEM.CONST>
0

>  <SCORE.SYSTEM.DIHEDRAL>
1.37356

>  <SCORE.SYSTEM.POLAR>
-0.851773

>  <SCORE.SYSTEM.VDW>
-1.20578

>  <SCORE.SYSTEM.norm>
-0.131347

>  <SCORE.heavy>
26

>  <SCORE.norm>
-0.908569

$$$$
S58.pdb
  rDOCK(R)          3D
libRbt.so/2013.1/901 2013/11/27
 28 30  0  0  0  0  0  0  0  0999 V2000
   22.9018   29.0248   26.9945 C   0  0  0  0  0  0
   24.1434   29.4781   27.3220 C   0  0  0  0  0  0
   22.9543   27.5402   27.1304 C   0  0  0  0  0  0
   21.8929   26.5331   26.8023 C   0  0  0  0  0  0
   26.1209   28.3950   28.3473 C   0  0  0  0  0  0
   26.9620   27.2904   28.1621 C   0  0  0  0  0  0
   28.2000   27.2626   28.7867 C   0  0  0  0  0  0
   28.5975   28.3503   29.5980 C   0  0  0  0  0  0
   27.7518   29.4573   29.7806 C   0  0  0  0  0  0
   26.5042   29.4768   29.1523 C   0  0  0  0  0  0
   24.5641   30.9116   27.2671 C   0  0  0  0  0  0
   23.5811   31.9317   27.3321 C   0  0  0  0  0  0
   23.9673   33.2811   27.4334 C   0  0  0  0  0  0
   25.3184   33.6148   27.4750 C   0  0  0  0  0  0
   26.2936   32.6159   27.3807 C   0  0  0  0  0  0
   25.9174   31.2558   27.2776 C   0  0  0  0  0  0
   24.9337   28.4037   27.6619 N   0  0  0  0  0  0
   24.1498   27.2145   27.5408 N   0  0  0  0  0  0
   31.3692   27.5910   29.3002 N   0  0  0  0  0  0
   30.1290   27.6021   31.6377 O   0  0  0  0  0  0
   30.6056   29.6883   30.6845 O   0  0  0  0  0  0
   25.8103   35.3599   27.8221 Br  0  0  0  0  0  0
   21.9226   26.2656   25.4728 F   0  0  0  0  0  0
   20.6924   26.9912   27.1902 F   0  0  0  0  0  0
   22.1697   25.4099   27.4740 F   0  0  0  0  0  0
   30.2293   28.3296   30.4120 S   0  0  0  0  0  0
   31.0738   27.3284   28.4063 H   0  0  0  0  0  0
   32.3004   27.4444   29.5733 H   0  0  0  0  0  0
  1  3  1  0  0  0
  2  1  2  0  0  0
  2 17  1  0  0  0
  3 18  2  0  0  0
  3  4  1  0  0  0
  4 23  1  0  0  0
  4 25  1  0  0  0
  5 17  1  0  0  0
  5  6  2  0  0  0
  7  6  1  0  0  0
  8  7  2  0  0  0
  9 10  2  0  0  0
  9  8  1  0  0  0
 10  5  1  0  0  0
 11  2  1  0  0  0
 12 11  1  0  0  0
 13 12  2  0  0  0
 14 15  2  0  0  0
 14 13  1  0  0  0
 15 16  1  0  0  0
 16 11  2  0  0  0
 17 18  1  0  0  0
 19 28  1  0  0  0
 20 26  2  0  0  0
 22 14  1  0  0  0
 24  4  1  0  0  0
 26  8  1  0  0  0
 26 19  1  0  0  0
 26 21  2  0  0  0
 27 19  1  0  0  0
M  END
>  <CHROM.0>
27.75479947,76.07923005,-81.25081992

>  <CHROM.1>
82.29513081,-157.56526526,22.72877220,37.43527574,3.35604748,25.84076135
29.94234163,28.17728122,2.13096011,0.41562094,3.06676533

>  <FORMUL>
      S58    C16 H11 Br1 F3 N3 O2 S1

>  <HET>
 S58  A 701      28

>  <HETNAM>
     S58 1-PHENYLSULFONAMIDE-3-TRIFLUOROMETHYL-5-PARABROMOPHENYL
   2 S58 PYRAZOLE

>  <Name>
S58.pdb

>  <RI>
0

>  <Rbt.Current_Directory>
/home/malgorzata/Desktop/rDOCK_IFD/Wyniki/3c_COX2

>  <Rbt.Executable>
rbdock ($Id: //depot/dev/client3/rdock/2013.1/src/exe/rbdock.cxx#4 $)

>  <Rbt.Library>
libRbt.so (2013.1, Build901 2013/11/27)

>  <Rbt.Parameter_File>
/home/malgorzata/Desktop/rDock_2013.1_src/data/scripts/soft_docking.prm

>  <Rbt.Receptor>
cavity.prm

>  <SCORE>
-22.4888

>  <SCORE.INTER>
-19.8838

>  <SCORE.INTER.CONST>
1

>  <SCORE.INTER.POLAR>
-2.12587

>  <SCORE.INTER.REPUL>
0

>  <SCORE.INTER.ROT>
5

>  <SCORE.INTER.VDW>
-23.0558

>  <SCORE.INTER.norm>
-0.76476

>  <SCORE.INTRA>
1.2442

>  <SCORE.INTRA.DIHEDRAL>
-10.0854

>  <SCORE.INTRA.DIHEDRAL.0>
18.1022

>  <SCORE.INTRA.POLAR>
0

>  <SCORE.INTRA.POLAR.0>
0

>  <SCORE.INTRA.REPUL>
0

>  <SCORE.INTRA.REPUL.0>
0

>  <SCORE.INTRA.VDW>
3.26128

>  <SCORE.INTRA.VDW.0>
-2.81782

>  <SCORE.INTRA.norm>
0.0478539

>  <SCORE.RESTR>
0.135245

>  <SCORE.RESTR.CAVITY>
0.135245

>  <SCORE.RESTR.norm>
0.00520172

>  <SCORE.SYSTEM>
-3.98444

>  <SCORE.SYSTEM.CONST>
0

>  <SCORE.SYSTEM.DIHEDRAL>
2.75865

>  <SCORE.SYSTEM.POLAR>
-1.07914

>  <SCORE.SYSTEM.VDW>
-1.6947

>  <SCORE.SYSTEM.norm>
-0.153248

>  <SCORE.heavy>
26

>  <SCORE.norm>
-0.864952

$$$$
S58.pdb
  rDOCK(R)          3D
libRbt.so/2013.1/901 2013/11/27
 28 30  0  0  0  0  0  0  0  0999 V2000
   22.8001   27.5866   27.7467 C   0  0  0  0  0  0
   23.9360   28.3290   27.8599 C   0  0  0  0  0  0
   23.2392   26.1615   27.7092 C   0  0  0  0  0  0
   22.4071   24.9318   27.4994 C   0  0  0  0  0  0
   26.2953   27.7445   28.3368 C   0  0  0  0  0  0
   26.4447   28.6087   29.4288 C   0  0  0  0  0  0
   27.7124   28.8603   29.9320 C   0  0  0  0  0  0
   28.8352   28.2386   29.3387 C   0  0  0  0  0  0
   28.6816   27.3712   28.2442 C   0  0  0  0  0  0
   27.4023   27.1258   27.7395 C   0  0  0  0  0  0
   23.9741   29.8234   27.8738 C   0  0  0  0  0  0
   23.1949   30.5337   28.8220 C   0  0  0  0  0  0
   23.3329   31.9284   28.9489 C   0  0  0  0  0  0
   24.2409   32.6117   28.1444 C   0  0  0  0  0  0
   24.9908   31.9214   27.1858 C   0  0  0  0  0  0
   24.8599   30.5193   27.0485 C   0  0  0  0  0  0
   25.0183   27.4802   27.9137 N   0  0  0  0  0  0
   24.5387   26.1362   27.8291 N   0  0  0  0  0  0
   31.6627   28.1123   28.7581 N   0  0  0  0  0  0
   30.6836   27.7857   31.1946 O   0  0  0  0  0  0
   30.6052   29.9518   30.3060 O   0  0  0  0  0  0
   24.5681   34.4000   28.4647 Br  0  0  0  0  0  0
   22.8602   23.9395   28.3057 F   0  0  0  0  0  0
   22.4379   24.5741   26.2061 F   0  0  0  0  0  0
   21.1475   25.2240   27.8420 F   0  0  0  0  0  0
   30.5049   28.5519   30.0020 S   0  0  0  0  0  0
   31.3629   27.6191   27.9693 H   0  0  0  0  0  0
   32.6070   28.3626   28.8522 H   0  0  0  0  0  0
  1  3  1  0  0  0
  2  1  2  0  0  0
  2 17  1  0  0  0
  3 18  2  0  0  0
  3  4  1  0  0  0
  4 23  1  0  0  0
  4 25  1  0  0  0
  5 17  1  0  0  0
  5  6  2  0  0  0
  7  6  1  0  0  0
  8  7  2  0  0  0
  9 10  2  0  0  0
  9  8  1  0  0  0
 10  5  1  0  0  0
 11  2  1  0  0  0
 12 11  1  0  0  0
 13 12  2  0  0  0
 14 15  2  0  0  0
 14 13  1  0  0  0
 15 16  1  0  0  0
 16 11  2  0  0  0
 17 18  1  0  0  0
 19 28  1  0  0  0
 20 26  2  0  0  0
 22 14  1  0  0  0
 24  4  1  0  0  0
 26  8  1  0  0  0
 26 19  1  0  0  0
 26 21  2  0  0  0
 27 19  1  0  0  0
M  END
>  <CHROM.0>
-140.54942815,91.73938847,-177.24409950

>  <CHROM.1>
-141.29934997,37.04932350,55.17593108,-160.81875915,-11.32623601,25.65867092
29.15261068,28.48260966,2.00705189,0.26706912,-3.09119646

>  <FORMUL>
      S58    C16 H11 Br1 F3 N3 O2 S1

>  <HET>
 S58  A 701      28

>  <HETNAM>
     S58 1-PHENYLSULFONAMIDE-3-TRIFLUOROMETHYL-5-PARABROMOPHENYL
   2 S58 PYRAZOLE

>  <Name>
S58.pdb

>  <RI>
0

>  <Rbt.Current_Directory>
/home/malgorzata/Desktop/rDOCK_IFD/Wyniki/3c_COX2

>  <Rbt.Executable>
rbdock ($Id: //depot/dev/client3/rdock/2013.1/src/exe/rbdock.cxx#4 $)

>  <Rbt.Library>
libRbt.so (2013.1, Build901 2013/11/27)

>  <Rbt.Parameter_File>
/home/malgorzata/Desktop/rDock_2013.1_src/data/scripts/soft_docking.prm

>  <Rbt.Receptor>
cavity.prm

>  <SCORE>
-21.0532

>  <SCORE.INTER>
-17.5108

>  <SCORE.INTER.CONST>
1

>  <SCORE.INTER.POLAR>
-1.62473

>  <SCORE.INTER.REPUL>
0

>  <SCORE.INTER.ROT>
5

>  <SCORE.INTER.VDW>
-22.3867

>  <SCORE.INTER.norm>
-0.673493

>  <SCORE.INTRA>
-0.484137

>  <SCORE.INTRA.DIHEDRAL>
-0.763587

>  <SCORE.INTRA.DIHEDRAL.0>
18.1022

>  <SCORE.INTRA.POLAR>
0

>  <SCORE.INTRA.POLAR.0>
0

>  <SCORE.INTRA.REPUL>
0

>  <SCORE.INTRA.REPUL.0>
0

>  <SCORE.INTRA.VDW>
-0.33142

>  <SCORE.INTRA.VDW.0>
-2.81782

>  <SCORE.INTRA.norm>
-0.0186207

>  <SCORE.RESTR>
0.0157342

>  <SCORE.RESTR.CAVITY>
0.0157342

>  <SCORE.RESTR.norm>
0.000605161

>  <SCORE.SYSTEM>
-3.07395

>  <SCORE.SYSTEM.CONST>
0

>  <SCORE.SYSTEM.DIHEDRAL>
0.846133

>  <SCORE.SYSTEM.POLAR>
-0.488927

>  <SCORE.SYSTEM.VDW>
-1.83467

>  <SCORE.SYSTEM.norm>
-0.118229

>  <SCORE.heavy>
26

>  <SCORE.norm>
-0.809737

$$$$
S58.pdb
  rDOCK(R)          3D
libRbt.so/2013.1/901 2013/11/27
 28 30  0  0  0  0  0  0  0  0999 V2000
   25.2813   31.4620   30.3139 C   0  0  0  0  0  0
   26.3772   31.0980   29.5922 C   0  0  0  0  0  0
   25.1598   30.4621   31.4142 C   0  0  0  0  0  0
   24.0783   30.3326   32.4447 C   0  0  0  0  0  0
   28.1955   29.4638   29.9903 C   0  0  0  0  0  0
   28.3153   28.3355   29.1691 C   0  0  0  0  0  0
   29.5724   27.8105   28.9093 C   0  0  0  0  0  0
   30.7152   28.4230   29.4733 C   0  0  0  0  0  0
   30.5915   29.5554   30.2957 C   0  0  0  0  0  0
   29.3218   30.0764   30.5570 C   0  0  0  0  0  0
   26.8438   31.7904   28.3521 C   0  0  0  0  0  0
   27.3621   33.1075   28.4398 C   0  0  0  0  0  0
   27.9431   33.7159   27.3116 C   0  0  0  0  0  0
   28.0136   33.0204   26.1075 C   0  0  0  0  0  0
   27.4768   31.7322   26.0059 C   0  0  0  0  0  0
   26.8894   31.1107   27.1331 C   0  0  0  0  0  0
   26.9386   29.9814   30.1688 N   0  0  0  0  0  0
   26.1554   29.6245   31.3102 N   0  0  0  0  0  0
   33.2918   27.7983   30.6214 N   0  0  0  0  0  0
   32.9862   28.5262   28.0958 O   0  0  0  0  0  0
   32.2162   26.3926   28.6811 O   0  0  0  0  0  0
   28.9646   33.7414   24.6992 Br  0  0  0  0  0  0
   23.2071   31.3641   32.3142 F   0  0  0  0  0  0
   24.6192   30.2915   33.6725 F   0  0  0  0  0  0
   23.4268   29.1869   32.2158 F   0  0  0  0  0  0
   32.3737   27.7487   29.1262 S   0  0  0  0  0  0
   33.8394   28.5811   30.8283 H   0  0  0  0  0  0
   33.2541   27.0446   31.2489 H   0  0  0  0  0  0
  1  3  1  0  0  0
  2  1  2  0  0  0
  2 17  1  0  0  0
  3 18  2  0  0  0
  3  4  1  0  0  0
  4 23  1  0  0  0
  4 25  1  0  0  0
  5 17  1  0  0  0
  5  6  2  0  0  0
  7  6  1  0  0  0
  8  7  2  0  0  0
  9 10  2  0  0  0
  9  8  1  0  0  0
 10  5  1  0  0  0
 11  2  1  0  0  0
 12 11  1  0  0  0
 13 12  2  0  0  0
 14 15  2  0  0  0
 14 13  1  0  0  0
 15 16  1  0  0  0
 16 11  2  0  0  0
 17 18  1  0  0  0
 19 28  1  0  0  0
 20 26  2  0  0  0
 22 14  1  0  0  0
 24  4  1  0  0  0
 26  8  1  0  0  0
 26 19  1  0  0  0
 26 21  2  0  0  0
 27 19  1  0  0  0
M  END
>  <CHROM.0>
-153.39031413,-8.60045278,-28.29865242

>  <CHROM.1>
-4.76006941,-102.97874194,68.17895352,-139.02840574,-91.57140411,28.21806465
30.59555218,28.87549911,2.48166736,-0.45678955,2.27630750

>  <FORMUL>
      S58    C16 H11 Br1 F3 N3 O2 S1

>  <HET>
 S58  A 701      28

>  <HETNAM>
     S58 1-PHENYLSULFONAMIDE-3-TRIFLUOROMETHYL-5-PARABROMOPHENYL
   2 S58 PYRAZOLE

>  <Name>
S58.pdb

>  <RI>
0

>  <Rbt.Current_Directory>
/home/malgorzata/Desktop/rDOCK_IFD/Wyniki/3c_COX2

>  <Rbt.Executable>
rbdock ($Id: //depot/dev/client3/rdock/2013.1/src/exe/rbdock.cxx#4 $)

>  <Rbt.Library>
libRbt.so (2013.1, Build901 2013/11/27)

>  <Rbt.Parameter_File>
/home/malgorzata/Desktop/rDock_2013.1_src/data/scripts/soft_docking.prm

>  <Rbt.Receptor>
cavity.prm

>  <SCORE>
-17.0639

>  <SCORE.INTER>
-17.5427

>  <SCORE.INTER.CONST>
1

>  <SCORE.INTER.POLAR>
-1.16119

>  <SCORE.INTER.REPUL>
0

>  <SCORE.INTER.ROT>
5

>  <SCORE.INTER.VDW>
-23.9946

>  <SCORE.INTER.norm>
-0.674718

>  <SCORE.INTRA>
0.766914

>  <SCORE.INTRA.DIHEDRAL>
7.70551

>  <SCORE.INTRA.DIHEDRAL.0>
18.1022

>  <SCORE.INTRA.POLAR>
0

>  <SCORE.INTRA.POLAR.0>
0

>  <SCORE.INTRA.REPUL>
0

>  <SCORE.INTRA.REPUL.0>
0

>  <SCORE.INTRA.VDW>
-0.774188

>  <SCORE.INTRA.VDW.0>
-2.81782

>  <SCORE.INTRA.norm>
0.0294967

>  <SCORE.RESTR>
0.389785

>  <SCORE.RESTR.CAVITY>
0.389785

>  <SCORE.RESTR.norm>
0.0149917

>  <SCORE.SYSTEM>
-0.677952

>  <SCORE.SYSTEM.CONST>
0

>  <SCORE.SYSTEM.DIHEDRAL>
4.74375

>  <SCORE.SYSTEM.POLAR>
-0.581905

>  <SCORE.SYSTEM.VDW>
-1.07135

>  <SCORE.SYSTEM.norm>
-0.0260751

>  <SCORE.heavy>
26

>  <SCORE.norm>
-0.656305

$$$$
S58.pdb
  rDOCK(R)          3D
libRbt.so/2013.1/901 2013/11/27
 28 30  0  0  0  0  0  0  0  0999 V2000
   21.5970   26.0041   28.8764 C   0  0  0  0  0  0
   22.5089   26.9142   29.3174 C   0  0  0  0  0  0
   21.5000   26.1976   27.4004 C   0  0  0  0  0  0
   20.5778   25.5252   26.4278 C   0  0  0  0  0  0
   24.1137   28.3982   28.1522 C   0  0  0  0  0  0
   24.0924   29.4673   27.2476 C   0  0  0  0  0  0
   25.1875   30.3145   27.1661 C   0  0  0  0  0  0
   26.3078   30.0899   27.9989 C   0  0  0  0  0  0
   26.3252   29.0172   28.9061 C   0  0  0  0  0  0
   25.2207   28.1650   28.9799 C   0  0  0  0  0  0
   22.8786   27.1170   30.7517 C   0  0  0  0  0  0
   23.2505   26.0001   31.5424 C   0  0  0  0  0  0
   23.7447   26.1894   32.8464 C   0  0  0  0  0  0
   23.8734   27.4774   33.3593 C   0  0  0  0  0  0
   23.4798   28.5819   32.5959 C   0  0  0  0  0  0
   22.9806   28.4040   31.2840 C   0  0  0  0  0  0
   22.9848   27.6251   28.2392 N   0  0  0  0  0  0
   22.3386   27.1383   27.0607 N   0  0  0  0  0  0
   27.4740   32.3203   26.5802 N   0  0  0  0  0  0
   28.9297   30.4276   27.7208 O   0  0  0  0  0  0
   27.8306   31.9218   29.1516 O   0  0  0  0  0  0
   24.7189   27.7262   34.9813 Br  0  0  0  0  0  0
   21.1117   24.3367   26.0503 F   0  0  0  0  0  0
   20.3592   26.3284   25.3749 F   0  0  0  0  0  0
   19.4168   25.2971   27.0519 F   0  0  0  0  0  0
   27.7468   31.2066   27.9092 S   0  0  0  0  0  0
   28.1174   33.0354   26.4072 H   0  0  0  0  0  0
   26.6802   32.2244   26.0110 H   0  0  0  0  0  0
  1  3  1  0  0  0
  2  1  2  0  0  0
  2 17  1  0  0  0
  3 18  2  0  0  0
  3  4  1  0  0  0
  4 23  1  0  0  0
  4 25  1  0  0  0
  5 17  1  0  0  0
  5  6  2  0  0  0
  7  6  1  0  0  0
  8  7  2  0  0  0
  9 10  2  0  0  0
  9  8  1  0  0  0
 10  5  1  0  0  0
 11  2  1  0  0  0
 12 11  1  0  0  0
 13 12  2  0  0  0
 14 15  2  0  0  0
 14 13  1  0  0  0
 15 16  1  0  0  0
 16 11  2  0  0  0
 17 18  1  0  0  0
 19 28  1  0  0  0
 20 26  2  0  0  0
 22 14  1  0  0  0
 24  4  1  0  0  0
 26  8  1  0  0  0
 26 19  1  0  0  0
 26 21  2  0  0  0
 27 19  1  0  0  0
M  END
>  <CHROM.0>
-32.31368401,-43.45242283,60.73936008

>  <CHROM.1>
-84.51671293,-151.28196772,51.14474226,-6.09920314,176.35489600,24.10781025
28.07349035,29.67338657,2.39556901,-0.69006297,-1.41234244

>  <FORMUL>
      S58    C16 H11 Br1 F3 N3 O2 S1

>  <HET>
 S58  A 701      28

>  <HETNAM>
     S58 1-PHENYLSULFONAMIDE-3-TRIFLUOROMETHYL-5-PARABROMOPHENYL
   2 S58 PYRAZOLE

>  <Name>
S58.pdb

>  <RI>
0

>  <Rbt.Current_Directory>
/home/malgorzata/Desktop/rDOCK_IFD/Wyniki/3c_COX2

>  <Rbt.Executable>
rbdock ($Id: //depot/dev/client3/rdock/2013.1/src/exe/rbdock.cxx#4 $)

>  <Rbt.Library>
libRbt.so (2013.1, Build901 2013/11/27)

>  <Rbt.Parameter_File>
/home/malgorzata/Desktop/rDock_2013.1_src/data/scripts/soft_docking.prm

>  <Rbt.Receptor>
cavity.prm

>  <SCORE>
-17.1999

>  <SCORE.INTER>
-15.0727

>  <SCORE.INTER.CONST>
1

>  <SCORE.INTER.POLAR>
-1.59677

>  <SCORE.INTER.REPUL>
0

>  <SCORE.INTER.ROT>
5

>  <SCORE.INTER.VDW>
-20.0436

>  <SCORE.INTER.norm>
-0.579718

>  <SCORE.INTRA>
-0.860028

>  <SCORE.INTRA.DIHEDRAL>
-3.49514

>  <SCORE.INTRA.DIHEDRAL.0>
18.1022

>  <SCORE.INTRA.POLAR>
0

>  <SCORE.INTRA.POLAR.0>
0

>  <SCORE.INTRA.REPUL>
0

>  <SCORE.INTRA.REPUL.0>
0

>  <SCORE.INTRA.VDW>
-0.160999

>  <SCORE.INTRA.VDW.0>
-2.81782

>  <SCORE.INTRA.norm>
-0.033078

>  <SCORE.RESTR>
0.357529

>  <SCORE.RESTR.CAVITY>
0.357529

>  <SCORE.RESTR.norm>
0.0137511

>  <SCORE.SYSTEM>
-1.62476

>  <SCORE.SYSTEM.CONST>
0

>  <SCORE.SYSTEM.DIHEDRAL>
0.817695

>  <SCORE.SYSTEM.POLAR>
-0.171632

>  <SCORE.SYSTEM.VDW>
-1.45005

>  <SCORE.SYSTEM.norm>
-0.0624906

>  <SCORE.heavy>
26

>  <SCORE.norm>
-0.661536

$$$$
S58.pdb
  rDOCK(R)          3D
libRbt.so/2013.1/901 2013/11/27
 28 30  0  0  0  0  0  0  0  0999 V2000
   22.6363   29.3345   27.2370 C   0  0  0  0  0  0
   23.5740   29.2039   28.2158 C   0  0  0  0  0  0
   23.3620   29.8330   26.0328 C   0  0  0  0  0  0
   22.7994   30.2381   24.7032 C   0  0  0  0  0  0
   26.0494   29.2895   28.2057 C   0  0  0  0  0  0
   26.3305   29.7312   29.5048 C   0  0  0  0  0  0
   27.5572   29.4305   30.0777 C   0  0  0  0  0  0
   28.5050   28.6798   29.3448 C   0  0  0  0  0  0
   28.2193   28.2373   28.0423 C   0  0  0  0  0  0
   26.9835   28.5475   27.4695 C   0  0  0  0  0  0
   23.2803   28.7848   29.6205 C   0  0  0  0  0  0
   23.0493   27.4154   29.9076 C   0  0  0  0  0  0
   22.9213   26.9838   31.2409 C   0  0  0  0  0  0
   23.0269   27.9034   32.2810 C   0  0  0  0  0  0
   23.2244   29.2606   32.0036 C   0  0  0  0  0  0
   23.3536   29.7065   30.6670 C   0  0  0  0  0  0
   24.8018   29.5596   27.7056 N   0  0  0  0  0  0
   24.6272   29.9338   26.3370 N   0  0  0  0  0  0
   30.9926   27.2634   28.9526 N   0  0  0  0  0  0
   29.8928   27.5962   31.3363 O   0  0  0  0  0  0
   30.8231   29.4948   30.3275 O   0  0  0  0  0  0
   23.0715   27.2982   34.0243 Br  0  0  0  0  0  0
   22.5717   31.5754   24.7000 F   0  0  0  0  0  0
   21.6795   29.5430   24.4496 F   0  0  0  0  0  0
   23.7114   29.9541   23.7667 F   0  0  0  0  0  0
   30.1154   28.2672   30.0946 S   0  0  0  0  0  0
   31.6771   27.6639   28.3813 H   0  0  0  0  0  0
   30.7989   26.3034   28.8892 H   0  0  0  0  0  0
  1  3  1  0  0  0
  2  1  2  0  0  0
  2 17  1  0  0  0
  3 18  2  0  0  0
  3  4  1  0  0  0
  4 23  1  0  0  0
  4 25  1  0  0  0
  5 17  1  0  0  0
  5  6  2  0  0  0
  7  6  1  0  0  0
  8  7  2  0  0  0
  9 10  2  0  0  0
  9  8  1  0  0  0
 10  5  1  0  0  0
 11  2  1  0  0  0
 12 11  1  0  0  0
 13 12  2  0  0  0
 14 15  2  0  0  0
 14 13  1  0  0  0
 15 16  1  0  0  0
 16 11  2  0  0  0
 17 18  1  0  0  0
 19 28  1  0  0  0
 20 26  2  0  0  0
 22 14  1  0  0  0
 24  4  1  0  0  0
 26  8  1  0  0  0
 26 19  1  0  0  0
 26 21  2  0  0  0
 27 19  1  0  0  0
M  END
>  <CHROM.0>
41.30473674,-111.95519015,-41.16632687

>  <CHROM.1>
93.34904988,-57.69449596,77.63012319,176.85539789,99.39242699,25.16551577
28.72312511,29.40927422,1.89119584,0.04360480,-1.27085532

>  <FORMUL>
      S58    C16 H11 Br1 F3 N3 O2 S1

>  <HET>
 S58  A 701      28

>  <HETNAM>
     S58 1-PHENYLSULFONAMIDE-3-TRIFLUOROMETHYL-5-PARABROMOPHENYL
   2 S58 PYRAZOLE

>  <Name>
S58.pdb

>  <RI>
0

>  <Rbt.Current_Directory>
/home/malgorzata/Desktop/rDOCK_IFD/Wyniki/3c_COX2

>  <Rbt.Executable>
rbdock ($Id: //depot/dev/client3/rdock/2013.1/src/exe/rbdock.cxx#4 $)

>  <Rbt.Library>
libRbt.so (2013.1, Build901 2013/11/27)

>  <Rbt.Parameter_File>
/home/malgorzata/Desktop/rDock_2013.1_src/data/scripts/soft_docking.prm

>  <Rbt.Receptor>
cavity.prm

>  <SCORE>
-22.0689

>  <SCORE.INTER>
-19.7162

>  <SCORE.INTER.CONST>
1

>  <SCORE.INTER.POLAR>
-2.24022

>  <SCORE.INTER.REPUL>
0.337689

>  <SCORE.INTER.ROT>
5

>  <SCORE.INTER.VDW>
-24.1879

>  <SCORE.INTER.norm>
-0.758316

>  <SCORE.INTRA>
0.301715

>  <SCORE.INTRA.DIHEDRAL>
4.22821

>  <SCORE.INTRA.DIHEDRAL.0>
18.1022

>  <SCORE.INTRA.POLAR>
0

>  <SCORE.INTRA.POLAR.0>
0

>  <SCORE.INTRA.REPUL>
0

>  <SCORE.INTRA.REPUL.0>
0

>  <SCORE.INTRA.VDW>
-0.543928

>  <SCORE.INTRA.VDW.0>
-2.81782

>  <SCORE.INTRA.norm>
0.0116044

>  <SCORE.RESTR>
0.101383

>  <SCORE.RESTR.CAVITY>
0.101383

>  <SCORE.RESTR.norm>
0.00389935

>  <SCORE.SYSTEM>
-2.75583

>  <SCORE.SYSTEM.CONST>
0

>  <SCORE.SYSTEM.DIHEDRAL>
2.39425

>  <SCORE.SYSTEM.POLAR>
-0.736922

>  <SCORE.SYSTEM.VDW>
-1.44741

>  <SCORE.SYSTEM.norm>
-0.105993

>  <SCORE.heavy>
26

>  <SCORE.norm>
-0.848805

$$$$
S58.pdb
  rDOCK(R)          3D
libRbt.so/2013.1/901 2013/11/27
 28 30  0  0  0  0  0  0  0  0999 V2000
   31.5799   30.3659   28.7509 C   0  0  0  0  0  0
   30.2917   30.7940   28.6435 C   0  0  0  0  0  0
   31.5318   28.8787   28.6448 C   0  0  0  0  0  0
   32.6532   27.8941   28.7916 C   0  0  0  0  0  0
   28.1842   29.6633   27.9991 C   0  0  0  0  0  0
   27.2849   28.8246   28.6697 C   0  0  0  0  0  0
   25.9552   28.7958   28.2765 C   0  0  0  0  0  0
   25.5251   29.6155   27.2077 C   0  0  0  0  0  0
   26.4296   30.4565   26.5381 C   0  0  0  0  0  0
   27.7686   30.4772   26.9362 C   0  0  0  0  0  0
   29.8607   32.2212   28.7546 C   0  0  0  0  0  0
   28.9462   32.5981   29.7708 C   0  0  0  0  0  0
   28.6468   33.9564   29.9849 C   0  0  0  0  0  0
   29.2542   34.9328   29.1999 C   0  0  0  0  0  0
   30.1339   34.5660   28.1756 C   0  0  0  0  0  0
   30.4420   33.2036   27.9503 C   0  0  0  0  0  0
   29.4738   29.7018   28.4627 N   0  0  0  0  0  0
   30.2889   28.5274   28.4573 N   0  0  0  0  0  0
   23.5721   30.8213   25.4529 N   0  0  0  0  0  0
   22.9516   29.8447   27.8327 O   0  0  0  0  0  0
   23.4857   28.2934   26.1605 O   0  0  0  0  0  0
   29.0204   36.7134   29.6271 Br  0  0  0  0  0  0
   32.1779   26.6389   28.5950 F   0  0  0  0  0  0
   33.2224   28.0262   29.9999 F   0  0  0  0  0  0
   33.5629   28.1629   27.8484 F   0  0  0  0  0  0
   23.7758   29.5953   26.6925 S   0  0  0  0  0  0
   24.3514   31.1489   24.9624 H   0  0  0  0  0  0
   22.6793   31.1750   25.2506 H   0  0  0  0  0  0
  1  3  1  0  0  0
  2  1  2  0  0  0
  2 17  1  0  0  0
  3 18  2  0  0  0
  3  4  1  0  0  0
  4 23  1  0  0  0
  4 25  1  0  0  0
  5 17  1  0  0  0
  5  6  2  0  0  0
  7  6  1  0  0  0
  8  7  2  0  0  0
  9 10  2  0  0  0
  9  8  1  0  0  0
 10  5  1  0  0  0
 11  2  1  0  0  0
 12 11  1  0  0  0
 13 12  2  0  0  0
 14 15  2  0  0  0
 14 13  1  0  0  0
 15 16  1  0  0  0
 16 11  2  0  0  0
 17 18  1  0  0  0
 19 28  1  0  0  0
 20 26  2  0  0  0
 22 14  1  0  0  0
 24  4  1  0  0  0
 26  8  1  0  0  0
 26 19  1  0  0  0
 26 21  2  0  0  0
 27 19  1  0  0  0
M  END
>  <CHROM.0>
-131.30005887,121.06160578,-157.73011053

>  <CHROM.1>
-178.89125613,-136.97360069,-119.92929800,175.04531528,20.09709630,28.58777129
31.27041458,28.34163738,-1.12273998,0.26025909,-2.95282447

>  <FORMUL>
      S58    C16 H11 Br1 F3 N3 O2 S1

>  <HET>
 S58  A 701      28

>  <HETNAM>
     S58 1-PHENYLSULFONAMIDE-3-TRIFLUOROMETHYL-5-PARABROMOPHENYL
   2 S58 PYRAZOLE

>  <Name>
S58.pdb

>  <RI>
0

>  <Rbt.Current_Directory>
/home/malgorzata/Desktop/rDOCK_IFD/Wyniki/3c_COX2

>  <Rbt.Executable>
rbdock ($Id: //depot/dev/client3/rdock/2013.1/src/exe/rbdock.cxx#4 $)

>  <Rbt.Library>
libRbt.so (2013.1, Build901 2013/11/27)

>  <Rbt.Parameter_File>
/home/malgorzata/Desktop/rDock_2013.1_src/data/scripts/soft_docking.prm

>  <Rbt.Receptor>
cavity.prm

>  <SCORE>
-17.3964

>  <SCORE.INTER>
-15.5868

>  <SCORE.INTER.CONST>
1

>  <SCORE.INTER.POLAR>
-1.52193

>  <SCORE.INTER.REPUL>
0

>  <SCORE.INTER.ROT>
5

>  <SCORE.INTER.VDW>
-20.8122

>  <SCORE.INTER.norm>
-0.599491

>  <SCORE.INTRA>
-0.153713

>  <SCORE.INTRA.DIHEDRAL>
1.50118

>  <SCORE.INTRA.DIHEDRAL.0>
18.1022

>  <SCORE.INTRA.POLAR>
0

>  <SCORE.INTRA.POLAR.0>
0

>  <SCORE.INTRA.REPUL>
0

>  <SCORE.INTRA.REPUL.0>
0

>  <SCORE.INTRA.VDW>
-0.453949

>  <SCORE.INTRA.VDW.0>
-2.81782

>  <SCORE.INTRA.norm>
-0.00591205

>  <SCORE.RESTR>
0.110773

>  <SCORE.RESTR.CAVITY>
0.110773

>  <SCORE.RESTR.norm>
0.00426051

>  <SCORE.SYSTEM>
-1.76667

>  <SCORE.SYSTEM.CONST>
0

>  <SCORE.SYSTEM.DIHEDRAL>
3.00532

>  <SCORE.SYSTEM.POLAR>
-0.446818

>  <SCORE.SYSTEM.VDW>
-1.75015

>  <SCORE.SYSTEM.norm>
-0.0679488

>  <SCORE.heavy>
26

>  <SCORE.norm>
-0.669091

$$$$
S58.pdb
  rDOCK(R)          3D
libRbt.so/2013.1/901 2013/11/27
 28 30  0  0  0  0  0  0  0  0999 V2000
   25.1305   32.5017   27.2780 C   0  0  0  0  0  0
   25.1998   31.1705   27.5565 C   0  0  0  0  0  0
   23.9008   32.6886   26.4545 C   0  0  0  0  0  0
   23.3964   33.9385   25.7975 C   0  0  0  0  0  0
   23.6026   29.2993   27.2689 C   0  0  0  0  0  0
   22.5737   28.8291   26.4431 C   0  0  0  0  0  0
   22.0648   27.5547   26.6447 C   0  0  0  0  0  0
   22.5935   26.7471   27.6778 C   0  0  0  0  0  0
   23.6264   27.2215   28.5036 C   0  0  0  0  0  0
   24.1313   28.5077   28.2980 C   0  0  0  0  0  0
   26.3120   30.5199   28.3146 C   0  0  0  0  0  0
   26.8303   31.1507   29.4741 C   0  0  0  0  0  0
   27.7696   30.4838   30.2824 C   0  0  0  0  0  0
   28.1871   29.1991   29.9451 C   0  0  0  0  0  0
   27.7027   28.5829   28.7861 C   0  0  0  0  0  0
   26.7588   29.2438   27.9651 C   0  0  0  0  0  0
   24.1134   30.5411   26.9924 N   0  0  0  0  0  0
   23.3215   31.5261   26.3245 N   0  0  0  0  0  0
   21.7459   24.3162   26.3663 N   0  0  0  0  0  0
   20.7030   25.1514   28.6503 O   0  0  0  0  0  0
   22.8979   24.3364   28.7265 O   0  0  0  0  0  0
   29.2508   28.2542   31.1213 Br  0  0  0  0  0  0
   24.2889   34.9410   25.9938 F   0  0  0  0  0  0
   22.1838   34.2515   26.2803 F   0  0  0  0  0  0
   23.2963   33.7018   24.4848 F   0  0  0  0  0  0
   21.9408   25.0648   27.9420 S   0  0  0  0  0  0
   20.9173   23.8437   26.1532 H   0  0  0  0  0  0
   22.4646   24.3735   25.7004 H   0  0  0  0  0  0
  1  3  1  0  0  0
  2  1  2  0  0  0
  2 17  1  0  0  0
  3 18  2  0  0  0
  3  4  1  0  0  0
  4 23  1  0  0  0
  4 25  1  0  0  0
  5 17  1  0  0  0
  5  6  2  0  0  0
  7  6  1  0  0  0
  8  7  2  0  0  0
  9 10  2  0  0  0
  9  8  1  0  0  0
 10  5  1  0  0  0
 11  2  1  0  0  0
 12 11  1  0  0  0
 13 12  2  0  0  0
 14 15  2  0  0  0
 14 13  1  0  0  0
 15 16  1  0  0  0
 16 11  2  0  0  0
 17 18  1  0  0  0
 19 28  1  0  0  0
 20 26  2  0  0  0
 22 14  1  0  0  0
 24  4  1  0  0  0
 26  8  1  0  0  0
 26 19  1  0  0  0
 26 21  2  0  0  0
 27 19  1  0  0  0
M  END
>  <CHROM.0>
-95.27732045,-103.84774690,78.51621975

>  <CHROM.1>
3.39263490,-172.92615930,42.48345470,42.89679812,-133.28956502,24.88929487
29.28780417,28.11949184,-2.18867193,0.51566632,2.82200829

>  <FORMUL>
      S58    C16 H11 Br1 F3 N3 O2 S1

>  <HET>
 S58  A 701      28

>  <HETNAM>
     S58 1-PHENYLSULFONAMIDE-3-TRIFLUOROMETHYL-5-PARABROMOPHENYL
   2 S58 PYRAZOLE

>  <Name>
S58.pdb

>  <RI>
0

>  <Rbt.Current_Directory>
/home/malgorzata/Desktop/rDOCK_IFD/Wyniki/3c_COX2

>  <Rbt.Executable>
rbdock ($Id: //depot/dev/client3/rdock/2013.1/src/exe/rbdock.cxx#4 $)

>  <Rbt.Library>
libRbt.so (2013.1, Build901 2013/11/27)

>  <Rbt.Parameter_File>
/home/malgorzata/Desktop/rDock_2013.1_src/data/scripts/soft_docking.prm

>  <Rbt.Receptor>
cavity.prm

>  <SCORE>
-20.4641

>  <SCORE.INTER>
-19.7336

>  <SCORE.INTER.CONST>
1

>  <SCORE.INTER.POLAR>
-1.79853

>  <SCORE.INTER.REPUL>
0

>  <SCORE.INTER.ROT>
5

>  <SCORE.INTER.VDW>
-24.0186

>  <SCORE.INTER.norm>
-0.758986

>  <SCORE.INTRA>
0.26145

>  <SCORE.INTRA.DIHEDRAL>
-8.86314

>  <SCORE.INTRA.DIHEDRAL.0>
18.1022

>  <SCORE.INTRA.POLAR>
0

>  <SCORE.INTRA.POLAR.0>
0

>  <SCORE.INTRA.REPUL>
0

>  <SCORE.INTRA.REPUL.0>
0

>  <SCORE.INTRA.VDW>
2.03408

>  <SCORE.INTRA.VDW.0>
-2.81782

>  <SCORE.INTRA.norm>
0.0100558

>  <SCORE.RESTR>
0.349092

>  <SCORE.RESTR.CAVITY>
0.349092

>  <SCORE.RESTR.norm>
0.0134266

>  <SCORE.SYSTEM>
-1.34096

>  <SCORE.SYSTEM.CONST>
0

>  <SCORE.SYSTEM.DIHEDRAL>
2.3496

>  <SCORE.SYSTEM.POLAR>
-0.167157

>  <SCORE.SYSTEM.VDW>
-1.94743

>  <SCORE.SYSTEM.norm>
-0.0515753

>  <SCORE.heavy>
26

>  <SCORE.norm>
-0.787079

$$$$
S58.pdb
  rDOCK(R)          3D
libRbt.so/2013.1/901 2013/11/27
 28 30  0  0  0  0  0  0  0  0999 V2000
   22.5586   26.0123   29.3226 C   0  0  0  0  0  0
   23.1965   27.2002   29.5130 C   0  0  0  0  0  0
   22.9479   25.5475   27.9596 C   0  0  0  0  0  0
   22.4604   24.3458   27.2067 C   0  0  0  0  0  0
   24.9796   28.3795   28.2619 C   0  0  0  0  0  0
   25.8831   28.1669   27.2130 C   0  0  0  0  0  0
   26.9065   29.0781   26.9982 C   0  0  0  0  0  0
   27.0215   30.2098   27.8378 C   0  0  0  0  0  0
   26.1126   30.4206   28.8883 C   0  0  0  0  0  0
   25.0869   29.4965   29.1020 C   0  0  0  0  0  0
   23.0467   28.0575   30.7285 C   0  0  0  0  0  0
   23.8389   27.7908   31.8740 C   0  0  0  0  0  0
   23.8206   28.6752   32.9685 C   0  0  0  0  0  0
   23.0261   29.8177   32.9241 C   0  0  0  0  0  0
   22.2188   30.0710   31.8097 C   0  0  0  0  0  0
   22.2282   29.1886   30.7037 C   0  0  0  0  0  0
   23.9503   27.4840   28.3968 N   0  0  0  0  0  0
   23.7766   26.4214   27.4565 N   0  0  0  0  0  0
   29.7691   30.8716   28.4379 N   0  0  0  0  0  0
   27.9164   32.7080   27.9938 O   0  0  0  0  0  0
   28.6289   31.4573   26.1456 O   0  0  0  0  0  0
   23.1716   31.0752   34.2677 Br  0  0  0  0  0  0
   21.1574   24.1230   27.5109 F   0  0  0  0  0  0
   23.2270   23.2828   27.4965 F   0  0  0  0  0  0
   22.5582   24.6117   25.8994 F   0  0  0  0  0  0
   28.3552   31.4210   27.5548 S   0  0  0  0  0  0
   30.3121   30.1426   28.0786 H   0  0  0  0  0  0
   30.0158   31.2958   29.2878 H   0  0  0  0  0  0
  1  3  1  0  0  0
  2  1  2  0  0  0
  2 17  1  0  0  0
  3 18  2  0  0  0
  3  4  1  0  0  0
  4 23  1  0  0  0
  4 25  1  0  0  0
  5 17  1  0  0  0
  5  6  2  0  0  0
  7  6  1  0  0  0
  8  7  2  0  0  0
  9 10  2  0  0  0
  9  8  1  0  0  0
 10  5  1  0  0  0
 11  2  1  0  0  0
 12 11  1  0  0  0
 13 12  2  0  0  0
 14 15  2  0  0  0
 14 13  1  0  0  0
 15 16  1  0  0  0
 16 11  2  0  0  0
 17 18  1  0  0  0
 19 28  1  0  0  0
 20 26  2  0  0  0
 22 14  1  0  0  0
 24  4  1  0  0  0
 26  8  1  0  0  0
 26 19  1  0  0  0
 26 21  2  0  0  0
 27 19  1  0  0  0
M  END
>  <CHROM.0>
52.34260479,117.57240712,-59.41219867

>  <CHROM.1>
34.06851822,157.88878574,84.48788868,-87.39603362,77.26640817,24.49786905
28.75130247,29.62353378,1.82774232,-0.71388833,-2.26489912

>  <FORMUL>
      S58    C16 H11 Br1 F3 N3 O2 S1

>  <HET>
 S58  A 701      28

>  <HETNAM>
     S58 1-PHENYLSULFONAMIDE-3-TRIFLUOROMETHYL-5-PARABROMOPHENYL
   2 S58 PYRAZOLE

>  <Name>
S58.pdb

>  <RI>
0

>  <Rbt.Current_Directory>
/home/malgorzata/Desktop/rDOCK_IFD/Wyniki/3c_COX2

>  <Rbt.Executable>
rbdock ($Id: //depot/dev/client3/rdock/2013.1/src/exe/rbdock.cxx#4 $)

>  <Rbt.Library>
libRbt.so (2013.1, Build901 2013/11/27)

>  <Rbt.Parameter_File>
/home/malgorzata/Desktop/rDock_2013.1_src/data/scripts/soft_docking.prm

>  <Rbt.Receptor>
cavity.prm

>  <SCORE>
-19.3649

>  <SCORE.INTER>
-14.7455

>  <SCORE.INTER.CONST>
1

>  <SCORE.INTER.POLAR>
-0.957027

>  <SCORE.INTER.REPUL>
0.015453

>  <SCORE.INTER.ROT>
5

>  <SCORE.INTER.VDW>
-21.9689

>  <SCORE.INTER.norm>
-0.567136

>  <SCORE.INTRA>
-0.112061

>  <SCORE.INTRA.DIHEDRAL>
-1.53424

>  <SCORE.INTRA.DIHEDRAL.0>
18.1022

>  <SCORE.INTRA.POLAR>
0

>  <SCORE.INTRA.POLAR.0>
0

>  <SCORE.INTRA.REPUL>
0

>  <SCORE.INTRA.REPUL.0>
0

>  <SCORE.INTRA.VDW>
0.194787

>  <SCORE.INTRA.VDW.0>
-2.81782

>  <SCORE.INTRA.norm>
-0.00431002

>  <SCORE.RESTR>
0.126059

>  <SCORE.RESTR.CAVITY>
0.126059

>  <SCORE.RESTR.norm>
0.00484841

>  <SCORE.SYSTEM>
-4.63339

>  <SCORE.SYSTEM.CONST>
0

>  <SCORE.SYSTEM.DIHEDRAL>
0.784808

>  <SCORE.SYSTEM.POLAR>
-0.940769

>  <SCORE.SYSTEM.VDW>
-1.82718

>  <SCORE.SYSTEM.norm>
-0.178207

>  <SCORE.heavy>
26

>  <SCORE.norm>
-0.744805

$$$$
