SIA.pdb
  rDOCK(R)          3D
libRbt.so/2013.1/901 2013/11/27
 28 28  0  0  0  0  0  0  0  0999 V2000
   -4.6884   60.8424   -7.1273 C   0  0  0  0  0  0
   -4.3396   59.3644   -7.3209 C   0  0  0  0  0  0
   -5.2766   58.2509   -7.7710 C   0  0  0  0  0  0
   -4.5420   57.0829   -8.4110 C   0  0  0  0  0  0
   -3.0905   56.9877   -7.9488 C   0  0  0  0  0  0
   -2.3580   58.2670   -8.3662 C   0  0  0  0  0  0
   -0.9170   58.2983   -7.8237 C   0  0  0  0  0  0
   -0.2278   59.6400   -8.0797 C   0  0  0  0  0  0
    1.2644   59.7175   -7.6728 C   0  0  0  0  0  0
   -1.5484   55.0344   -8.3379 C   0  0  0  0  0  0
   -1.2975   53.8714   -9.2833 C   0  0  0  0  0  0
   -2.5567   55.8285   -8.6409 N   0  0  0  0  0  0
   -5.9072   61.0494   -7.2744 O   0  0  0  0  0  0
   -3.9950   61.8634   -6.9636 O   0  0  0  0  0  0
   -3.7123   59.3587   -6.0363 O   0  0  0  0  0  0
   -5.2005   55.9066   -8.0025 O   0  0  0  0  0  0
   -2.9907   59.4331   -7.7992 O   0  0  0  0  0  0
   -0.8836   58.0995   -6.4194 O   0  0  0  0  0  0
   -0.2707   59.7933   -9.4805 O   0  0  0  0  0  0
    1.6909   61.0660   -7.5541 O   0  0  0  0  0  0
   -0.8527   55.2765   -7.3502 O   0  0  0  0  0  0
   -3.1333   55.6360   -9.4196 H   0  0  0  0  0  0
   -3.0478   58.6476   -6.1181 H   0  0  0  0  0  0
   -6.0819   55.9190   -8.4261 H   0  0  0  0  0  0
   -0.8352   57.1389   -6.6178 H   0  0  0  0  0  0
    0.2453   59.0450   -9.8109 H   0  0  0  0  0  0
    2.6575   60.9246   -7.5374 H   0  0  0  0  0  0
   -3.0621   61.7927   -6.9108 H   0  0  0  0  0  0
  1 13  2  0  0  0
  1 14  1  0  0  0
  2  1  1  0  0  0
  2  3  1  0  0  0
  2 15  1  0  0  0
  2 17  1  0  0  0
  3  4  1  0  0  0
  4  5  1  0  0  0
  4 16  1  0  0  0
  5  6  1  0  0  0
  5 12  1  0  0  0
  6  7  1  0  0  0
  6 17  1  0  0  0
  7  8  1  0  0  0
  7 18  1  0  0  0
  8  9  1  0  0  0
  8 19  1  0  0  0
  9 20  1  0  0  0
 10 11  1  0  0  0
 10 12  1  0  0  0
 10 21  2  0  0  0
 12 22  1  0  0  0
 14 28  1  0  0  0
 15 23  1  0  0  0
 16 24  1  0  0  0
 18 25  1  0  0  0
 19 26  1  0  0  0
 20 27  1  0  0  0
M  END
>  <CHROM.0>
11.81990934,175.39136018,-61.21954665,65.37915751,120.61870158,52.56705582
-94.89729504,-71.67218245,-27.05921427,24.52895739,72.17418103

>  <CHROM.1>
-2.28600434,5.79712816,-153.37582018,67.78390288,-155.69066646,-172.84368057
-175.04652511,88.62782044,-161.79752446,-62.09455422,-165.72033355,-2.42794269
58.36954125,-7.77688611,2.09247946,0.08521157,0.18217252

>  <FORMUL>
      SIA    C11 H19 N1 O9

>  <HET>
 SIA  A 467      39

>  <HETNAM>
     SIA O-SIALIC ACID

>  <Name>
SIA.pdb

>  <RI>
0

>  <Rbt.Current_Directory>
/home/malgorzata/Desktop/rDOCK_IFD/Wyniki/12_neuraminidase/IFD

>  <Rbt.Executable>
rbdock ($Id: //depot/dev/client3/rdock/2013.1/src/exe/rbdock.cxx#4 $)

>  <Rbt.Library>
libRbt.so (2013.1, Build901 2013/11/27)

>  <Rbt.Parameter_File>
/home/malgorzata/Desktop/rDock_2013.1_src/data/scripts/dock.prm

>  <Rbt.Receptor>
cavity.prm

>  <SCORE>
-42.3213

>  <SCORE.INTER>
-10.3461

>  <SCORE.INTER.CONST>
1

>  <SCORE.INTER.POLAR>
-2.89836

>  <SCORE.INTER.REPUL>
0.0245222

>  <SCORE.INTER.ROT>
5

>  <SCORE.INTER.VDW>
-11.0143

>  <SCORE.INTER.norm>
-0.492673

>  <SCORE.INTRA>
-16.5387

>  <SCORE.INTRA.DIHEDRAL>
-15.3272

>  <SCORE.INTRA.DIHEDRAL.0>
24.6845

>  <SCORE.INTRA.POLAR>
-0.42504

>  <SCORE.INTRA.POLAR.0>
-0.967721

>  <SCORE.INTRA.REPUL>
0

>  <SCORE.INTRA.REPUL.0>
0

>  <SCORE.INTRA.VDW>
-7.43

>  <SCORE.INTRA.VDW.0>
7.44847

>  <SCORE.INTRA.norm>
-0.787559

>  <SCORE.RESTR>
0.015902

>  <SCORE.RESTR.CAVITY>
0.015902

>  <SCORE.RESTR.norm>
0.000757237

>  <SCORE.SYSTEM>
-15.4523

>  <SCORE.SYSTEM.CONST>
0

>  <SCORE.SYSTEM.DIHEDRAL>
3.89773

>  <SCORE.SYSTEM.POLAR>
-4.87344

>  <SCORE.SYSTEM.REPUL>
0.0403512

>  <SCORE.SYSTEM.VDW>
-1.03326

>  <SCORE.SYSTEM.norm>
-0.735825

>  <SCORE.heavy>
21

>  <SCORE.norm>
-2.0153

$$$$
SIA.pdb
  rDOCK(R)          3D
libRbt.so/2013.1/901 2013/11/27
 28 28  0  0  0  0  0  0  0  0999 V2000
   -6.6496   56.7805   -7.9476 C   0  0  0  0  0  0
   -5.1192   56.8062   -7.9187 C   0  0  0  0  0  0
   -4.1704   55.9472   -8.7447 C   0  0  0  0  0  0
   -2.8013   56.5847   -8.9251 C   0  0  0  0  0  0
   -2.4747   57.5805   -7.8154 C   0  0  0  0  0  0
   -3.5088   58.7103   -7.8504 C   0  0  0  0  0  0
   -3.3179   59.6907   -6.6781 C   0  0  0  0  0  0
   -4.1231   60.9788   -6.8595 C   0  0  0  0  0  0
   -4.0030   62.0135   -5.7136 C   0  0  0  0  0  0
   -0.6921   58.6674   -9.2245 C   0  0  0  0  0  0
    0.7654   59.0966   -9.1974 C   0  0  0  0  0  0
   -1.1482   58.0737   -8.1390 N   0  0  0  0  0  0
   -7.0947   57.1777   -9.0404 O   0  0  0  0  0  0
   -7.5109   56.5495   -7.0787 O   0  0  0  0  0  0
   -5.1590   56.7397   -6.4912 O   0  0  0  0  0  0
   -1.8508   55.5471   -8.8640 O   0  0  0  0  0  0
   -4.8454   58.1930   -7.6843 O   0  0  0  0  0  0
   -3.7489   59.1259   -5.4501 O   0  0  0  0  0  0
   -3.5648   61.5815   -8.0052 O   0  0  0  0  0  0
   -4.7874   63.1653   -5.9826 O   0  0  0  0  0  0
   -1.4323   58.8177  -10.1980 O   0  0  0  0  0  0
   -0.5709   57.9627   -7.3451 H   0  0  0  0  0  0
   -4.3914   57.2809   -6.2234 H   0  0  0  0  0  0
   -1.9157   55.1618   -7.9675 H   0  0  0  0  0  0
   -3.1567   59.7763   -5.0132 H   0  0  0  0  0  0
   -3.8389   61.0011   -8.7286 H   0  0  0  0  0  0
   -5.6780   62.7717   -5.9021 H   0  0  0  0  0  0
   -8.4210   56.6117   -7.2930 H   0  0  0  0  0  0
  1 13  2  0  0  0
  1 14  1  0  0  0
  2  1  1  0  0  0
  2  3  1  0  0  0
  2 15  1  0  0  0
  2 17  1  0  0  0
  3  4  1  0  0  0
  4  5  1  0  0  0
  4 16  1  0  0  0
  5  6  1  0  0  0
  5 12  1  0  0  0
  6  7  1  0  0  0
  6 17  1  0  0  0
  7  8  1  0  0  0
  7 18  1  0  0  0
  8  9  1  0  0  0
  8 19  1  0  0  0
  9 20  1  0  0  0
 10 11  1  0  0  0
 10 12  1  0  0  0
 10 21  2  0  0  0
 12 22  1  0  0  0
 14 28  1  0  0  0
 15 23  1  0  0  0
 16 24  1  0  0  0
 18 25  1  0  0  0
 19 26  1  0  0  0
 20 27  1  0  0  0
M  END
>  <CHROM.0>
-65.21765885,71.55827579,-179.54431453,62.59802518,37.09662632,-40.88371339
79.38686685,-173.52417734,-24.53519113,-143.33955852,-76.75750613

>  <CHROM.1>
177.99371601,-66.50961448,-145.46750585,-62.90968863,57.16678954,167.30987853
179.19596872,157.52533597,-179.96576986,69.67566404,68.55299638,-3.71261546
58.49523454,-7.76780437,2.27445098,-0.32333516,-2.77227162

>  <FORMUL>
      SIA    C11 H19 N1 O9

>  <HET>
 SIA  A 467      39

>  <HETNAM>
     SIA O-SIALIC ACID

>  <Name>
SIA.pdb

>  <RI>
0

>  <Rbt.Current_Directory>
/home/malgorzata/Desktop/rDOCK_IFD/Wyniki/12_neuraminidase/IFD

>  <Rbt.Executable>
rbdock ($Id: //depot/dev/client3/rdock/2013.1/src/exe/rbdock.cxx#4 $)

>  <Rbt.Library>
libRbt.so (2013.1, Build901 2013/11/27)

>  <Rbt.Parameter_File>
/home/malgorzata/Desktop/rDock_2013.1_src/data/scripts/dock.prm

>  <Rbt.Receptor>
cavity.prm

>  <SCORE>
-43.3994

>  <SCORE.INTER>
-12.996

>  <SCORE.INTER.CONST>
1

>  <SCORE.INTER.POLAR>
-3.38243

>  <SCORE.INTER.REPUL>
0

>  <SCORE.INTER.ROT>
5

>  <SCORE.INTER.VDW>
-11.8958

>  <SCORE.INTER.norm>
-0.618857

>  <SCORE.INTRA>
-14.3261

>  <SCORE.INTRA.DIHEDRAL>
-15.0667

>  <SCORE.INTRA.DIHEDRAL.0>
24.6845

>  <SCORE.INTRA.POLAR>
0.0502054

>  <SCORE.INTRA.POLAR.0>
-0.967721

>  <SCORE.INTRA.REPUL>
0

>  <SCORE.INTRA.REPUL.0>
0

>  <SCORE.INTRA.VDW>
-6.96349

>  <SCORE.INTRA.VDW.0>
7.44847

>  <SCORE.INTRA.norm>
-0.682197

>  <SCORE.RESTR>
0

>  <SCORE.RESTR.CAVITY>
0

>  <SCORE.RESTR.norm>
0

>  <SCORE.SYSTEM>
-16.0773

>  <SCORE.SYSTEM.CONST>
0

>  <SCORE.SYSTEM.DIHEDRAL>
5.21222

>  <SCORE.SYSTEM.POLAR>
-4.9873

>  <SCORE.SYSTEM.REPUL>
0.247716

>  <SCORE.SYSTEM.VDW>
-2.96514

>  <SCORE.SYSTEM.norm>
-0.765585

>  <SCORE.heavy>
21

>  <SCORE.norm>
-2.06664

$$$$
SIA.pdb
  rDOCK(R)          3D
libRbt.so/2013.1/901 2013/11/27
 28 28  0  0  0  0  0  0  0  0999 V2000
   -7.3290   58.4966  -13.4996 C   0  0  0  0  0  0
   -6.0696   58.4055  -12.6342 C   0  0  0  0  0  0
   -4.8430   59.3065  -12.6997 C   0  0  0  0  0  0
   -4.0660   59.3431  -11.3926 C   0  0  0  0  0  0
   -4.2948   58.0931  -10.5471 C   0  0  0  0  0  0
   -5.7818   58.0094  -10.1880 C   0  0  0  0  0  0
   -6.1119   56.7048   -9.4390 C   0  0  0  0  0  0
   -6.7983   56.9624   -8.0961 C   0  0  0  0  0  0
   -8.0434   57.8820   -8.1432 C   0  0  0  0  0  0
   -2.5127   57.5581   -8.8492 C   0  0  0  0  0  0
   -1.8369   58.1062   -7.6034 C   0  0  0  0  0  0
   -3.4799   58.2931   -9.3624 N   0  0  0  0  0  0
   -8.1941   57.6771  -13.1387 O   0  0  0  0  0  0
   -7.6054   59.1369  -14.5310 O   0  0  0  0  0  0
   -6.0002   57.0041  -12.9075 O   0  0  0  0  0  0
   -2.6983   59.3914  -11.7259 O   0  0  0  0  0  0
   -6.5990   57.9689  -11.3764 O   0  0  0  0  0  0
   -6.9984   55.8853  -10.1841 O   0  0  0  0  0  0
   -7.2523   55.6921   -7.6864 O   0  0  0  0  0  0
   -8.6424   57.9948   -6.8615 O   0  0  0  0  0  0
   -2.2255   56.4764   -9.3645 O   0  0  0  0  0  0
   -3.7084   59.1704   -8.9699 H   0  0  0  0  0  0
   -5.7656   56.9751  -13.8551 H   0  0  0  0  0  0
   -2.2134   59.5497  -10.8916 H   0  0  0  0  0  0
   -6.4428   56.0995  -10.9651 H   0  0  0  0  0  0
   -6.4378   55.1920   -7.5388 H   0  0  0  0  0  0
   -8.8641   57.0558   -6.7080 H   0  0  0  0  0  0
   -6.9448   59.6471  -14.9569 H   0  0  0  0  0  0
  1 13  2  0  0  0
  1 14  1  0  0  0
  2  1  1  0  0  0
  2  3  1  0  0  0
  2 15  1  0  0  0
  2 17  1  0  0  0
  3  4  1  0  0  0
  4  5  1  0  0  0
  4 16  1  0  0  0
  5  6  1  0  0  0
  5 12  1  0  0  0
  6  7  1  0  0  0
  6 17  1  0  0  0
  7  8  1  0  0  0
  7 18  1  0  0  0
  8  9  1  0  0  0
  8 19  1  0  0  0
  9 20  1  0  0  0
 10 11  1  0  0  0
 10 12  1  0  0  0
 10 21  2  0  0  0
 12 22  1  0  0  0
 14 28  1  0  0  0
 15 23  1  0  0  0
 16 24  1  0  0  0
 18 25  1  0  0  0
 19 26  1  0  0  0
 20 27  1  0  0  0
M  END
>  <CHROM.0>
13.37706788,174.95035186,65.20796235,60.59837226,-67.42584388,-65.44595320
-173.49681281,161.30709992,117.90550271,9.14321661,70.74001163

>  <CHROM.1>
4.86305637,-175.15859775,69.13442413,171.69861254,-122.68110694,124.89425578
52.20751930,43.78237189,176.82335492,65.48794402,-60.68533408,-5.62783119
57.79842117,-10.48709775,2.00789569,-0.16431214,-1.28560849

>  <FORMUL>
      SIA    C11 H19 N1 O9

>  <HET>
 SIA  A 467      39

>  <HETNAM>
     SIA O-SIALIC ACID

>  <Name>
SIA.pdb

>  <RI>
0

>  <Rbt.Current_Directory>
/home/malgorzata/Desktop/rDOCK_IFD/Wyniki/12_neuraminidase/IFD

>  <Rbt.Executable>
rbdock ($Id: //depot/dev/client3/rdock/2013.1/src/exe/rbdock.cxx#4 $)

>  <Rbt.Library>
libRbt.so (2013.1, Build901 2013/11/27)

>  <Rbt.Parameter_File>
/home/malgorzata/Desktop/rDock_2013.1_src/data/scripts/dock.prm

>  <Rbt.Receptor>
cavity.prm

>  <SCORE>
-42.1087

>  <SCORE.INTER>
-15.7432

>  <SCORE.INTER.CONST>
1

>  <SCORE.INTER.POLAR>
-4.49712

>  <SCORE.INTER.REPUL>
0.147415

>  <SCORE.INTER.ROT>
5

>  <SCORE.INTER.VDW>
-11.5901

>  <SCORE.INTER.norm>
-0.749676

>  <SCORE.INTRA>
-9.49459

>  <SCORE.INTRA.DIHEDRAL>
-13.0793

>  <SCORE.INTRA.DIHEDRAL.0>
24.6845

>  <SCORE.INTRA.POLAR>
-0.120175

>  <SCORE.INTRA.POLAR.0>
-0.967721

>  <SCORE.INTRA.REPUL>
0

>  <SCORE.INTRA.REPUL.0>
0

>  <SCORE.INTRA.VDW>
-2.54634

>  <SCORE.INTRA.VDW.0>
7.44847

>  <SCORE.INTRA.norm>
-0.452123

>  <SCORE.RESTR>
0

>  <SCORE.RESTR.CAVITY>
0

>  <SCORE.RESTR.norm>
0

>  <SCORE.SYSTEM>
-16.8709

>  <SCORE.SYSTEM.CONST>
0

>  <SCORE.SYSTEM.DIHEDRAL>
3.18034

>  <SCORE.SYSTEM.POLAR>
-4.77656

>  <SCORE.SYSTEM.REPUL>
0.0204563

>  <SCORE.SYSTEM.VDW>
-2.32307

>  <SCORE.SYSTEM.norm>
-0.803378

>  <SCORE.heavy>
21

>  <SCORE.norm>
-2.00518

$$$$
SIA.pdb
  rDOCK(R)          3D
libRbt.so/2013.1/901 2013/11/27
 28 28  0  0  0  0  0  0  0  0999 V2000
   -3.7455   60.1155   -3.1006 C   0  0  0  0  0  0
   -2.9006   60.4241   -4.3393 C   0  0  0  0  0  0
   -1.5368   61.1017   -4.3753 C   0  0  0  0  0  0
   -0.7322   60.7451   -5.6159 C   0  0  0  0  0  0
   -1.6212   60.3148   -6.7795 C   0  0  0  0  0  0
   -2.3967   59.0598   -6.3663 C   0  0  0  0  0  0
   -3.4103   58.6379   -7.4463 C   0  0  0  0  0  0
   -4.2673   57.4489   -7.0076 C   0  0  0  0  0  0
   -5.1801   56.8389   -8.0997 C   0  0  0  0  0  0
   -0.8955   59.9658   -9.1662 C   0  0  0  0  0  0
    0.3287   59.6812  -10.0204 C   0  0  0  0  0  0
   -0.6993   60.0280   -7.8637 N   0  0  0  0  0  0
   -3.4769   60.8840   -2.1587 O   0  0  0  0  0  0
   -4.5473   59.2033   -2.8262 O   0  0  0  0  0  0
   -4.0518   60.9964   -4.9646 O   0  0  0  0  0  0
   -0.0427   61.9084   -6.0099 O   0  0  0  0  0  0
   -3.1940   59.3090   -5.1898 O   0  0  0  0  0  0
   -4.3165   59.6865   -7.7497 O   0  0  0  0  0  0
   -3.3318   56.4521   -6.6630 O   0  0  0  0  0  0
   -6.1417   57.7827   -8.5457 O   0  0  0  0  0  0
   -2.0315   60.1050   -9.6224 O   0  0  0  0  0  0
    0.2089   59.9359   -7.4860 H   0  0  0  0  0  0
   -3.7809   61.0709   -5.9000 H   0  0  0  0  0  0
    0.5929   62.1115   -5.2948 H   0  0  0  0  0  0
   -3.6301   60.0185   -8.3687 H   0  0  0  0  0  0
   -3.8689   55.7660   -6.2434 H   0  0  0  0  0  0
   -6.6119   57.2310   -9.2007 H   0  0  0  0  0  0
   -5.1238   59.2912   -2.0927 H   0  0  0  0  0  0
  1 13  2  0  0  0
  1 14  1  0  0  0
  2  1  1  0  0  0
  2  3  1  0  0  0
  2 15  1  0  0  0
  2 17  1  0  0  0
  3  4  1  0  0  0
  4  5  1  0  0  0
  4 16  1  0  0  0
  5  6  1  0  0  0
  5 12  1  0  0  0
  6  7  1  0  0  0
  6 17  1  0  0  0
  7  8  1  0  0  0
  7 18  1  0  0  0
  8  9  1  0  0  0
  8 19  1  0  0  0
  9 20  1  0  0  0
 10 11  1  0  0  0
 10 12  1  0  0  0
 10 21  2  0  0  0
 12 22  1  0  0  0
 14 28  1  0  0  0
 15 23  1  0  0  0
 16 24  1  0  0  0
 18 25  1  0  0  0
 19 26  1  0  0  0
 20 27  1  0  0  0
M  END
>  <CHROM.0>
-72.81855813,72.42109980,-67.26103558,-29.05288715,-72.99128907,54.74693944
80.01234439,66.01324614,114.47810083,-145.26993509,-78.34494674

>  <CHROM.1>
-165.38400390,24.99439399,-166.12621347,65.15493212,-159.54980541,-175.71793573
-172.13641764,84.56960629,-62.88375573,170.42817248,-179.44923100,-2.81940219
59.54739347,-6.37708347,1.80746171,0.58977103,1.20198251

>  <FORMUL>
      SIA    C11 H19 N1 O9

>  <HET>
 SIA  A 467      39

>  <HETNAM>
     SIA O-SIALIC ACID

>  <Name>
SIA.pdb

>  <RI>
0

>  <Rbt.Current_Directory>
/home/malgorzata/Desktop/rDOCK_IFD/Wyniki/12_neuraminidase/IFD

>  <Rbt.Executable>
rbdock ($Id: //depot/dev/client3/rdock/2013.1/src/exe/rbdock.cxx#4 $)

>  <Rbt.Library>
libRbt.so (2013.1, Build901 2013/11/27)

>  <Rbt.Parameter_File>
/home/malgorzata/Desktop/rDock_2013.1_src/data/scripts/dock.prm

>  <Rbt.Receptor>
cavity.prm

>  <SCORE>
-45.2279

>  <SCORE.INTER>
-14.97

>  <SCORE.INTER.CONST>
1

>  <SCORE.INTER.POLAR>
-3.96624

>  <SCORE.INTER.REPUL>
0

>  <SCORE.INTER.ROT>
5

>  <SCORE.INTER.VDW>
-11.8848

>  <SCORE.INTER.norm>
-0.712856

>  <SCORE.INTRA>
-16.5063

>  <SCORE.INTRA.DIHEDRAL>
-16.0173

>  <SCORE.INTRA.DIHEDRAL.0>
24.6845

>  <SCORE.INTRA.POLAR>
-0.140851

>  <SCORE.INTRA.POLAR.0>
-0.967721

>  <SCORE.INTRA.REPUL>
0

>  <SCORE.INTRA.REPUL.0>
0

>  <SCORE.INTRA.VDW>
-8.01872

>  <SCORE.INTRA.VDW.0>
7.44847

>  <SCORE.INTRA.norm>
-0.786012

>  <SCORE.RESTR>
0

>  <SCORE.RESTR.CAVITY>
0

>  <SCORE.RESTR.norm>
0

>  <SCORE.SYSTEM>
-13.7517

>  <SCORE.SYSTEM.CONST>
0

>  <SCORE.SYSTEM.DIHEDRAL>
9.12989

>  <SCORE.SYSTEM.POLAR>
-4.92226

>  <SCORE.SYSTEM.REPUL>
0.0331027

>  <SCORE.SYSTEM.VDW>
-1.74644

>  <SCORE.SYSTEM.norm>
-0.654842

>  <SCORE.heavy>
21

>  <SCORE.norm>
-2.15371

$$$$
SIA.pdb
  rDOCK(R)          3D
libRbt.so/2013.1/901 2013/11/27
 28 28  0  0  0  0  0  0  0  0999 V2000
   -1.8373   61.8099   -3.1650 C   0  0  0  0  0  0
   -2.3464   61.4696   -4.5680 C   0  0  0  0  0  0
   -3.2255   62.3355   -5.4613 C   0  0  0  0  0  0
   -3.0724   62.0069   -6.9384 C   0  0  0  0  0  0
   -2.5830   60.5794   -7.1670 C   0  0  0  0  0  0
   -1.2013   60.4256   -6.5232 C   0  0  0  0  0  0
   -0.6960   58.9730   -6.6045 C   0  0  0  0  0  0
   -0.0064   58.6704   -7.9362 C   0  0  0  0  0  0
    1.3671   59.3524   -8.1521 C   0  0  0  0  0  0
   -3.3456   59.8910   -9.4669 C   0  0  0  0  0  0
   -2.9584   59.9681  -10.9343 C   0  0  0  0  0  0
   -2.5071   60.4404   -8.6102 N   0  0  0  0  0  0
   -0.6540   62.1964   -3.1874 O   0  0  0  0  0  0
   -2.3279   61.6756   -2.0286 O   0  0  0  0  0  0
   -2.7730   60.1923   -4.0881 O   0  0  0  0  0  0
   -4.3492   62.1214   -7.5219 O   0  0  0  0  0  0
   -1.2535   60.7191   -5.1115 O   0  0  0  0  0  0
    0.2599   58.6957   -5.5935 O   0  0  0  0  0  0
    0.2362   57.2822   -7.8966 O   0  0  0  0  0  0
    2.0778   58.7410   -9.2177 O   0  0  0  0  0  0
   -4.3611   59.3275   -9.0553 O   0  0  0  0  0  0
   -1.6985   60.9107   -8.9277 H   0  0  0  0  0  0
   -3.0747   59.7408   -4.8999 H   0  0  0  0  0  0
   -4.2262   62.0118   -8.4859 H   0  0  0  0  0  0
    0.1172   57.7470   -5.8040 H   0  0  0  0  0  0
   -0.6486   56.8922   -7.9178 H   0  0  0  0  0  0
    2.0892   57.8201   -8.8916 H   0  0  0  0  0  0
   -1.8266   61.9072   -1.2715 H   0  0  0  0  0  0
  1 13  2  0  0  0
  1 14  1  0  0  0
  2  1  1  0  0  0
  2  3  1  0  0  0
  2 15  1  0  0  0
  2 17  1  0  0  0
  3  4  1  0  0  0
  4  5  1  0  0  0
  4 16  1  0  0  0
  5  6  1  0  0  0
  5 12  1  0  0  0
  6  7  1  0  0  0
  6 17  1  0  0  0
  7  8  1  0  0  0
  7 18  1  0  0  0
  8  9  1  0  0  0
  8 19  1  0  0  0
  9 20  1  0  0  0
 10 11  1  0  0  0
 10 12  1  0  0  0
 10 21  2  0  0  0
 12 22  1  0  0  0
 14 28  1  0  0  0
 15 23  1  0  0  0
 16 24  1  0  0  0
 18 25  1  0  0  0
 19 26  1  0  0  0
 20 27  1  0  0  0
M  END
>  <CHROM.0>
-77.42309663,70.94266606,65.63958294,64.63550065,-67.86648423,-50.06189904
82.50945779,-170.79887425,112.77256895,-123.37980749,70.06573566

>  <CHROM.1>
176.47122103,-100.81514984,-174.47210260,173.55481803,-99.16275681,84.68681379
70.20852912,165.21176584,164.09354437,66.65710412,-56.43971018,-1.66247741
60.28518684,-6.61596725,-1.81301506,0.48772100,-1.90751463

>  <FORMUL>
      SIA    C11 H19 N1 O9

>  <HET>
 SIA  A 467      39

>  <HETNAM>
     SIA O-SIALIC ACID

>  <Name>
SIA.pdb

>  <RI>
0

>  <Rbt.Current_Directory>
/home/malgorzata/Desktop/rDOCK_IFD/Wyniki/12_neuraminidase/IFD

>  <Rbt.Executable>
rbdock ($Id: //depot/dev/client3/rdock/2013.1/src/exe/rbdock.cxx#4 $)

>  <Rbt.Library>
libRbt.so (2013.1, Build901 2013/11/27)

>  <Rbt.Parameter_File>
/home/malgorzata/Desktop/rDock_2013.1_src/data/scripts/dock.prm

>  <Rbt.Receptor>
cavity.prm

>  <SCORE>
-36.8828

>  <SCORE.INTER>
-5.90725

>  <SCORE.INTER.CONST>
1

>  <SCORE.INTER.POLAR>
-2.11804

>  <SCORE.INTER.REPUL>
0

>  <SCORE.INTER.ROT>
5

>  <SCORE.INTER.VDW>
-9.10593

>  <SCORE.INTER.norm>
-0.281298

>  <SCORE.INTRA>
-13.9859

>  <SCORE.INTRA.DIHEDRAL>
-17.3492

>  <SCORE.INTRA.DIHEDRAL.0>
24.6845

>  <SCORE.INTRA.POLAR>
0.744596

>  <SCORE.INTRA.POLAR.0>
-0.967721

>  <SCORE.INTRA.REPUL>
0

>  <SCORE.INTRA.REPUL.0>
0

>  <SCORE.INTRA.VDW>
-7.84293

>  <SCORE.INTRA.VDW.0>
7.44847

>  <SCORE.INTRA.norm>
-0.665996

>  <SCORE.RESTR>
0

>  <SCORE.RESTR.CAVITY>
0

>  <SCORE.RESTR.norm>
0

>  <SCORE.SYSTEM>
-16.9896

>  <SCORE.SYSTEM.CONST>
0

>  <SCORE.SYSTEM.DIHEDRAL>
6.9962

>  <SCORE.SYSTEM.POLAR>
-4.91036

>  <SCORE.SYSTEM.REPUL>
0.0116378

>  <SCORE.SYSTEM.VDW>
-3.85069

>  <SCORE.SYSTEM.norm>
-0.80903

>  <SCORE.heavy>
21

>  <SCORE.norm>
-1.75632

$$$$
SIA.pdb
  rDOCK(R)          3D
libRbt.so/2013.1/901 2013/11/27
 28 28  0  0  0  0  0  0  0  0999 V2000
   -1.6502   61.1107   -6.7077 C   0  0  0  0  0  0
   -2.1369   59.6623   -6.6141 C   0  0  0  0  0  0
   -3.5536   59.1525   -6.8453 C   0  0  0  0  0  0
   -3.5959   57.6864   -7.2480 C   0  0  0  0  0  0
   -2.3654   56.9189   -6.7725 C   0  0  0  0  0  0
   -1.1223   57.5323   -7.4250 C   0  0  0  0  0  0
    0.1726   56.8890   -6.8948 C   0  0  0  0  0  0
    1.3913   57.2451   -7.7484 C   0  0  0  0  0  0
    1.6121   58.7558   -8.0075 C   0  0  0  0  0  0
   -2.6936   55.0661   -8.4470 C   0  0  0  0  0  0
   -2.8673   53.5602   -8.5541 C   0  0  0  0  0  0
   -2.5790   55.5573   -7.2286 N   0  0  0  0  0  0
   -1.1554   61.3573   -7.8233 O   0  0  0  0  0  0
   -1.5576   62.0303   -5.8735 O   0  0  0  0  0  0
   -1.4798   59.5380   -5.3505 O   0  0  0  0  0  0
   -4.7237   57.1186   -6.6238 O   0  0  0  0  0  0
   -1.0015   58.9312   -7.0932 O   0  0  0  0  0  0
    0.4717   57.3263   -5.5787 O   0  0  0  0  0  0
    2.4924   56.8028   -6.9873 O   0  0  0  0  0  0
    2.3580   58.9653   -9.1966 O   0  0  0  0  0  0
   -2.6872   55.8254   -9.4173 O   0  0  0  0  0  0
   -2.5648   54.9583   -6.4431 H   0  0  0  0  0  0
   -2.0954   59.9831   -4.7367 H   0  0  0  0  0  0
   -5.5076   57.5508   -7.0177 H   0  0  0  0  0  0
    0.9861   56.4950   -5.4848 H   0  0  0  0  0  0
    2.3280   55.8569   -6.8708 H   0  0  0  0  0  0
    1.6844   58.7021   -9.8535 H   0  0  0  0  0  0
   -1.1650   62.8457   -6.1167 H   0  0  0  0  0  0
  1 13  2  0  0  0
  1 14  1  0  0  0
  2  1  1  0  0  0
  2  3  1  0  0  0
  2 15  1  0  0  0
  2 17  1  0  0  0
  3  4  1  0  0  0
  4  5  1  0  0  0
  4 16  1  0  0  0
  5  6  1  0  0  0
  5 12  1  0  0  0
  6  7  1  0  0  0
  6 17  1  0  0  0
  7  8  1  0  0  0
  7 18  1  0  0  0
  8  9  1  0  0  0
  8 19  1  0  0  0
  9 20  1  0  0  0
 10 11  1  0  0  0
 10 12  1  0  0  0
 10 21  2  0  0  0
 12 22  1  0  0  0
 14 28  1  0  0  0
 15 23  1  0  0  0
 16 24  1  0  0  0
 18 25  1  0  0  0
 19 26  1  0  0  0
 20 27  1  0  0  0
M  END
>  <CHROM.0>
-12.93425241,171.46586458,177.82095864,62.22728660,-66.06179429,51.70609304
82.19741004,-27.41043916,48.95066820,-2.79578198,-80.36167237

>  <CHROM.1>
175.24465189,-96.00931253,78.74100460,65.44841342,62.60889839,166.77895987
52.23327194,156.27159559,-155.41992725,58.63598539,70.55469321,-1.22569362
57.98083527,-7.24103857,1.03595701,0.12508198,0.27024199

>  <FORMUL>
      SIA    C11 H19 N1 O9

>  <HET>
 SIA  A 467      39

>  <HETNAM>
     SIA O-SIALIC ACID

>  <Name>
SIA.pdb

>  <RI>
0

>  <Rbt.Current_Directory>
/home/malgorzata/Desktop/rDOCK_IFD/Wyniki/12_neuraminidase/IFD

>  <Rbt.Executable>
rbdock ($Id: //depot/dev/client3/rdock/2013.1/src/exe/rbdock.cxx#4 $)

>  <Rbt.Library>
libRbt.so (2013.1, Build901 2013/11/27)

>  <Rbt.Parameter_File>
/home/malgorzata/Desktop/rDock_2013.1_src/data/scripts/dock.prm

>  <Rbt.Receptor>
cavity.prm

>  <SCORE>
-40.4963

>  <SCORE.INTER>
-15.9364

>  <SCORE.INTER.CONST>
1

>  <SCORE.INTER.POLAR>
-4.18205

>  <SCORE.INTER.REPUL>
0

>  <SCORE.INTER.ROT>
5

>  <SCORE.INTER.VDW>
-12.1174

>  <SCORE.INTER.norm>
-0.758876

>  <SCORE.INTRA>
-10.5107

>  <SCORE.INTRA.DIHEDRAL>
-15.8825

>  <SCORE.INTRA.DIHEDRAL.0>
24.6845

>  <SCORE.INTRA.POLAR>
0.967721

>  <SCORE.INTRA.POLAR.0>
-0.967721

>  <SCORE.INTRA.REPUL>
0.292858

>  <SCORE.INTRA.REPUL.0>
0

>  <SCORE.INTRA.VDW>
-7.32401

>  <SCORE.INTRA.VDW.0>
7.44847

>  <SCORE.INTRA.norm>
-0.500511

>  <SCORE.RESTR>
0

>  <SCORE.RESTR.CAVITY>
0

>  <SCORE.RESTR.norm>
0

>  <SCORE.SYSTEM>
-14.0492

>  <SCORE.SYSTEM.CONST>
0

>  <SCORE.SYSTEM.DIHEDRAL>
3.19446

>  <SCORE.SYSTEM.POLAR>
-4.88919

>  <SCORE.SYSTEM.REPUL>
0.351988

>  <SCORE.SYSTEM.VDW>
-0.783069

>  <SCORE.SYSTEM.norm>
-0.669007

>  <SCORE.heavy>
21

>  <SCORE.norm>
-1.92839

$$$$
SIA.pdb
  rDOCK(R)          3D
libRbt.so/2013.1/901 2013/11/27
 28 28  0  0  0  0  0  0  0  0999 V2000
   -4.3693   60.7426   -6.8626 C   0  0  0  0  0  0
   -4.0176   59.2620   -7.0282 C   0  0  0  0  0  0
   -4.9251   58.1552   -7.5499 C   0  0  0  0  0  0
   -4.1517   56.9812   -8.1305 C   0  0  0  0  0  0
   -2.7413   56.8755   -7.5568 C   0  0  0  0  0  0
   -1.9690   58.1490   -7.9160 C   0  0  0  0  0  0
   -0.5743   58.1700   -7.2630 C   0  0  0  0  0  0
    0.3238   59.2640   -7.8436 C   0  0  0  0  0  0
   -0.2741   60.6926   -7.8475 C   0  0  0  0  0  0
   -1.7202   54.5774   -7.7002 C   0  0  0  0  0  0
   -1.2169   53.5463   -8.6966 C   0  0  0  0  0  0
   -2.1639   55.7119   -8.2051 N   0  0  0  0  0  0
   -5.5348   60.9814   -7.2297 O   0  0  0  0  0  0
   -3.7003   61.7431   -6.5436 O   0  0  0  0  0  0
   -3.4922   59.2525   -5.6988 O   0  0  0  0  0  0
   -4.8488   55.8103   -7.7744 O   0  0  0  0  0  0
   -2.6351   59.3203   -7.4001 O   0  0  0  0  0  0
   -0.6543   58.4237   -5.8695 O   0  0  0  0  0  0
    1.4374   59.2969   -6.9797 O   0  0  0  0  0  0
   -0.7590   61.0456   -6.5612 O   0  0  0  0  0  0
   -1.7023   54.4152   -6.4789 O   0  0  0  0  0  0
   -2.2004   55.8482   -9.1828 H   0  0  0  0  0  0
   -2.7906   58.5745   -5.7434 H   0  0  0  0  0  0
   -4.8242   55.7571   -6.7982 H   0  0  0  0  0  0
    0.2633   58.0779   -5.8156 H   0  0  0  0  0  0
    1.8867   58.4575   -7.1496 H   0  0  0  0  0  0
   -1.4091   60.3272   -6.4353 H   0  0  0  0  0  0
   -2.8116   61.6428   -6.2640 H   0  0  0  0  0  0
  1 13  2  0  0  0
  1 14  1  0  0  0
  2  1  1  0  0  0
  2  3  1  0  0  0
  2 15  1  0  0  0
  2 17  1  0  0  0
  3  4  1  0  0  0
  4  5  1  0  0  0
  4 16  1  0  0  0
  5  6  1  0  0  0
  5 12  1  0  0  0
  6  7  1  0  0  0
  6 17  1  0  0  0
  7  8  1  0  0  0
  7 18  1  0  0  0
  8  9  1  0  0  0
  8 19  1  0  0  0
  9 20  1  0  0  0
 10 11  1  0  0  0
 10 12  1  0  0  0
 10 21  2  0  0  0
 12 22  1  0  0  0
 14 28  1  0  0  0
 15 23  1  0  0  0
 16 24  1  0  0  0
 18 25  1  0  0  0
 19 26  1  0  0  0
 20 27  1  0  0  0
M  END
>  <CHROM.0>
-84.86364573,176.99374470,-65.70117546,66.70732057,107.29868613,-51.70612477
-101.45289662,-98.07388100,118.01651182,9.72173300,-156.01684303

>  <CHROM.1>
-6.35141193,-0.78140058,-150.00156285,-63.41459650,-118.35347417,167.43180846
52.84320170,162.94780674,51.58316868,68.77048509,-58.61422947,-2.34020761
58.24560739,-7.24683038,1.70681197,-0.02024104,0.16250316

>  <FORMUL>
      SIA    C11 H19 N1 O9

>  <HET>
 SIA  A 467      39

>  <HETNAM>
     SIA O-SIALIC ACID

>  <Name>
SIA.pdb

>  <RI>
0

>  <Rbt.Current_Directory>
/home/malgorzata/Desktop/rDOCK_IFD/Wyniki/12_neuraminidase/IFD

>  <Rbt.Executable>
rbdock ($Id: //depot/dev/client3/rdock/2013.1/src/exe/rbdock.cxx#4 $)

>  <Rbt.Library>
libRbt.so (2013.1, Build901 2013/11/27)

>  <Rbt.Parameter_File>
/home/malgorzata/Desktop/rDock_2013.1_src/data/scripts/dock.prm

>  <Rbt.Receptor>
cavity.prm

>  <SCORE>
-44.7268

>  <SCORE.INTER>
-5.65952

>  <SCORE.INTER.CONST>
1

>  <SCORE.INTER.POLAR>
-1.70094

>  <SCORE.INTER.REPUL>
0.130734

>  <SCORE.INTER.ROT>
5

>  <SCORE.INTER.VDW>
-10.93

>  <SCORE.INTER.norm>
-0.269501

>  <SCORE.INTRA>
-20.7534

>  <SCORE.INTRA.DIHEDRAL>
-18.1914

>  <SCORE.INTRA.DIHEDRAL.0>
24.6845

>  <SCORE.INTRA.POLAR>
-1.38871

>  <SCORE.INTRA.POLAR.0>
-0.967721

>  <SCORE.INTRA.REPUL>
0

>  <SCORE.INTRA.REPUL.0>
0

>  <SCORE.INTRA.VDW>
-6.93605

>  <SCORE.INTRA.VDW.0>
7.44847

>  <SCORE.INTRA.norm>
-0.988257

>  <SCORE.RESTR>
0

>  <SCORE.RESTR.CAVITY>
0

>  <SCORE.RESTR.norm>
0

>  <SCORE.SYSTEM>
-18.3139

>  <SCORE.SYSTEM.CONST>
0

>  <SCORE.SYSTEM.DIHEDRAL>
3.36864

>  <SCORE.SYSTEM.POLAR>
-4.85168

>  <SCORE.SYSTEM.REPUL>
0.00274375

>  <SCORE.SYSTEM.VDW>
-3.51626

>  <SCORE.SYSTEM.norm>
-0.872091

>  <SCORE.heavy>
21

>  <SCORE.norm>
-2.12985

$$$$
SIA.pdb
  rDOCK(R)          3D
libRbt.so/2013.1/901 2013/11/27
 28 28  0  0  0  0  0  0  0  0999 V2000
   -4.1451   60.6957   -7.1191 C   0  0  0  0  0  0
   -3.9491   59.1778   -7.1482 C   0  0  0  0  0  0
   -4.8923   58.1411   -7.7450 C   0  0  0  0  0  0
   -4.1842   56.8524   -8.1341 C   0  0  0  0  0  0
   -2.8974   56.6362   -7.3424 C   0  0  0  0  0  0
   -1.9360   57.7902   -7.6444 C   0  0  0  0  0  0
   -0.6615   57.7069   -6.7839 C   0  0  0  0  0  0
    0.6081   57.6101   -7.6319 C   0  0  0  0  0  0
    1.0342   58.9114   -8.3551 C   0  0  0  0  0  0
   -2.1234   54.9612   -9.0571 C   0  0  0  0  0  0
   -1.5204   53.5730   -9.1940 C   0  0  0  0  0  0
   -2.3706   55.3740   -7.8294 N   0  0  0  0  0  0
   -5.1980   61.0336   -7.6913 O   0  0  0  0  0  0
   -3.4238   61.6373   -6.7407 O   0  0  0  0  0  0
   -3.6324   59.2060   -5.7545 O   0  0  0  0  0  0
   -5.0592   55.7916   -7.8289 O   0  0  0  0  0  0
   -2.5294   59.0601   -7.3024 O   0  0  0  0  0  0
   -0.5052   58.8584   -5.9700 O   0  0  0  0  0  0
    1.6269   57.3144   -6.7033 O   0  0  0  0  0  0
    2.1813   58.6938   -9.1621 O   0  0  0  0  0  0
   -2.4106   55.6806  -10.0153 O   0  0  0  0  0  0
   -2.1291   54.8149   -7.0516 H   0  0  0  0  0  0
   -3.2350   58.3272   -5.6004 H   0  0  0  0  0  0
   -4.6450   54.9785   -8.1806 H   0  0  0  0  0  0
   -1.2967   58.5449   -5.4803 H   0  0  0  0  0  0
    1.4243   56.4132   -6.4170 H   0  0  0  0  0  0
    2.2668   59.5832   -9.5573 H   0  0  0  0  0  0
   -3.7344   62.5193   -6.8016 H   0  0  0  0  0  0
  1 13  2  0  0  0
  1 14  1  0  0  0
  2  1  1  0  0  0
  2  3  1  0  0  0
  2 15  1  0  0  0
  2 17  1  0  0  0
  3  4  1  0  0  0
  4  5  1  0  0  0
  4 16  1  0  0  0
  5  6  1  0  0  0
  5 12  1  0  0  0
  6  7  1  0  0  0
  6 17  1  0  0  0
  7  8  1  0  0  0
  7 18  1  0  0  0
  8  9  1  0  0  0
  8 19  1  0  0  0
  9 20  1  0  0  0
 10 11  1  0  0  0
 10 12  1  0  0  0
 10 21  2  0  0  0
 12 22  1  0  0  0
 14 28  1  0  0  0
 15 23  1  0  0  0
 16 24  1  0  0  0
 18 25  1  0  0  0
 19 26  1  0  0  0
 20 27  1  0  0  0
M  END
>  <CHROM.0>
-80.76463222,71.87928948,-70.07672760,63.63952751,94.59388076,-42.86646754
-87.18158905,58.28406427,46.03298156,68.61849155,-93.09514214

>  <CHROM.1>
-179.59142445,-1.66376567,-165.61250266,173.24719909,52.40476141,120.95124912
72.98326471,67.96100082,-177.12855908,68.92768918,177.35324605,-2.15224462
57.87297833,-7.65247329,-2.45331428,-0.02388036,-2.81842965

>  <FORMUL>
      SIA    C11 H19 N1 O9

>  <HET>
 SIA  A 467      39

>  <HETNAM>
     SIA O-SIALIC ACID

>  <Name>
SIA.pdb

>  <RI>
0

>  <Rbt.Current_Directory>
/home/malgorzata/Desktop/rDOCK_IFD/Wyniki/12_neuraminidase/IFD

>  <Rbt.Executable>
rbdock ($Id: //depot/dev/client3/rdock/2013.1/src/exe/rbdock.cxx#4 $)

>  <Rbt.Library>
libRbt.so (2013.1, Build901 2013/11/27)

>  <Rbt.Parameter_File>
/home/malgorzata/Desktop/rDock_2013.1_src/data/scripts/dock.prm

>  <Rbt.Receptor>
cavity.prm

>  <SCORE>
-44.6234

>  <SCORE.INTER>
-16.0347

>  <SCORE.INTER.CONST>
1

>  <SCORE.INTER.POLAR>
-4.13235

>  <SCORE.INTER.REPUL>
0

>  <SCORE.INTER.ROT>
5

>  <SCORE.INTER.VDW>
-12.3848

>  <SCORE.INTER.norm>
-0.763559

>  <SCORE.INTRA>
-12.4375

>  <SCORE.INTRA.DIHEDRAL>
-15.415

>  <SCORE.INTRA.DIHEDRAL.0>
24.6845

>  <SCORE.INTRA.POLAR>
0.960288

>  <SCORE.INTRA.POLAR.0>
-0.967721

>  <SCORE.INTRA.REPUL>
0

>  <SCORE.INTRA.REPUL.0>
0

>  <SCORE.INTRA.VDW>
-7.99501

>  <SCORE.INTRA.VDW.0>
7.44847

>  <SCORE.INTRA.norm>
-0.592263

>  <SCORE.RESTR>
0

>  <SCORE.RESTR.CAVITY>
0

>  <SCORE.RESTR.norm>
0

>  <SCORE.SYSTEM>
-16.1511

>  <SCORE.SYSTEM.CONST>
0

>  <SCORE.SYSTEM.DIHEDRAL>
8.18405

>  <SCORE.SYSTEM.POLAR>
-4.97728

>  <SCORE.SYSTEM.REPUL>
0.000929841

>  <SCORE.SYSTEM.VDW>
-3.325

>  <SCORE.SYSTEM.norm>
-0.7691

>  <SCORE.heavy>
21

>  <SCORE.norm>
-2.12492

$$$$
SIA.pdb
  rDOCK(R)          3D
libRbt.so/2013.1/901 2013/11/27
 28 28  0  0  0  0  0  0  0  0999 V2000
   -2.2415   54.9868   -7.2603 C   0  0  0  0  0  0
   -2.5521   55.6796   -8.5895 C   0  0  0  0  0  0
   -2.4244   55.0860   -9.9866 C   0  0  0  0  0  0
   -3.3240   55.7705  -11.0042 C   0  0  0  0  0  0
   -3.6790   57.1979  -10.5967 C   0  0  0  0  0  0
   -4.4463   57.1530   -9.2714 C   0  0  0  0  0  0
   -4.7303   58.5673   -8.7321 C   0  0  0  0  0  0
   -5.8982   58.5899   -7.7441 C   0  0  0  0  0  0
   -7.3068   58.4192   -8.3645 C   0  0  0  0  0  0
   -5.7473   57.3648  -12.0247 C   0  0  0  0  0  0
   -6.3417   58.1330  -13.1934 C   0  0  0  0  0  0
   -4.5194   57.6920  -11.6725 N   0  0  0  0  0  0
   -1.6977   53.8806   -7.4354 O   0  0  0  0  0  0
   -2.5174   55.2587   -6.0770 O   0  0  0  0  0  0
   -1.7791   56.8056   -8.1673 O   0  0  0  0  0  0
   -2.6051   55.8357  -12.2137 O   0  0  0  0  0  0
   -3.6618   56.5165   -8.2413 O   0  0  0  0  0  0
   -3.6131   59.0938   -8.0340 O   0  0  0  0  0  0
   -5.6823   57.4652   -6.9220 O   0  0  0  0  0  0
   -7.4445   57.1445   -8.9732 O   0  0  0  0  0  0
   -6.3338   56.4575  -11.4323 O   0  0  0  0  0  0
   -4.0443   58.4293  -12.1271 H   0  0  0  0  0  0
   -2.3991   57.2970   -7.5946 H   0  0  0  0  0  0
   -3.1217   56.4089  -12.8146 H   0  0  0  0  0  0
   -3.1976   59.2171   -8.9153 H   0  0  0  0  0  0
   -4.8342   57.6499   -6.4955 H   0  0  0  0  0  0
   -8.2849   57.2878   -9.4505 H   0  0  0  0  0  0
   -2.2926   54.6582   -5.3937 H   0  0  0  0  0  0
  1 13  2  0  0  0
  1 14  1  0  0  0
  2  1  1  0  0  0
  2  3  1  0  0  0
  2 15  1  0  0  0
  2 17  1  0  0  0
  3  4  1  0  0  0
  4  5  1  0  0  0
  4 16  1  0  0  0
  5  6  1  0  0  0
  5 12  1  0  0  0
  6  7  1  0  0  0
  6 17  1  0  0  0
  7  8  1  0  0  0
  7 18  1  0  0  0
  8  9  1  0  0  0
  8 19  1  0  0  0
  9 20  1  0  0  0
 10 11  1  0  0  0
 10 12  1  0  0  0
 10 21  2  0  0  0
 12 22  1  0  0  0
 14 28  1  0  0  0
 15 23  1  0  0  0
 16 24  1  0  0  0
 18 25  1  0  0  0
 19 26  1  0  0  0
 20 27  1  0  0  0
M  END
>  <CHROM.0>
11.31674974,171.42631501,-67.17439955,66.74652326,117.54883586,-65.16059802
80.83141141,156.35766039,-32.80888873,-143.22436445,-150.78639840

>  <CHROM.1>
174.80396517,8.12888670,-81.11288171,-170.44068050,69.78004604,158.58031213
-73.33566585,74.10735597,63.74110724,62.03744559,-168.94343017,-4.21283527
56.81597387,-9.29168661,-0.65095537,0.59153111,-1.63822371

>  <FORMUL>
      SIA    C11 H19 N1 O9

>  <HET>
 SIA  A 467      39

>  <HETNAM>
     SIA O-SIALIC ACID

>  <Name>
SIA.pdb

>  <RI>
0

>  <Rbt.Current_Directory>
/home/malgorzata/Desktop/rDOCK_IFD/Wyniki/12_neuraminidase/IFD

>  <Rbt.Executable>
rbdock ($Id: //depot/dev/client3/rdock/2013.1/src/exe/rbdock.cxx#4 $)

>  <Rbt.Library>
libRbt.so (2013.1, Build901 2013/11/27)

>  <Rbt.Parameter_File>
/home/malgorzata/Desktop/rDock_2013.1_src/data/scripts/dock.prm

>  <Rbt.Receptor>
cavity.prm

>  <SCORE>
-41.6548

>  <SCORE.INTER>
-10.4431

>  <SCORE.INTER.CONST>
1

>  <SCORE.INTER.POLAR>
-2.10288

>  <SCORE.INTER.REPUL>
0.20348

>  <SCORE.INTER.ROT>
5

>  <SCORE.INTER.VDW>
-14.7107

>  <SCORE.INTER.norm>
-0.497291

>  <SCORE.INTRA>
-13.9983

>  <SCORE.INTRA.DIHEDRAL>
-14.5536

>  <SCORE.INTRA.DIHEDRAL.0>
24.6845

>  <SCORE.INTRA.POLAR>
0.685051

>  <SCORE.INTRA.POLAR.0>
-0.967721

>  <SCORE.INTRA.REPUL>
0.00121521

>  <SCORE.INTRA.REPUL.0>
0

>  <SCORE.INTRA.VDW>
-9.0568

>  <SCORE.INTRA.VDW.0>
7.44847

>  <SCORE.INTRA.norm>
-0.666588

>  <SCORE.RESTR>
0

>  <SCORE.RESTR.CAVITY>
0

>  <SCORE.RESTR.norm>
0

>  <SCORE.SYSTEM>
-17.2133

>  <SCORE.SYSTEM.CONST>
0

>  <SCORE.SYSTEM.DIHEDRAL>
5.36509

>  <SCORE.SYSTEM.POLAR>
-4.81386

>  <SCORE.SYSTEM.REPUL>
8.95998e-05

>  <SCORE.SYSTEM.VDW>
-3.52919

>  <SCORE.SYSTEM.norm>
-0.819682

>  <SCORE.heavy>
21

>  <SCORE.norm>
-1.98356

$$$$
SIA.pdb
  rDOCK(R)          3D
libRbt.so/2013.1/901 2013/11/27
 28 28  0  0  0  0  0  0  0  0999 V2000
   -6.7265   57.2943   -8.9229 C   0  0  0  0  0  0
   -5.7647   58.4301   -8.5648 C   0  0  0  0  0  0
   -6.1273   59.8757   -8.2493 C   0  0  0  0  0  0
   -5.0807   60.5746   -7.3951 C   0  0  0  0  0  0
   -3.6997   59.9403   -7.5358 C   0  0  0  0  0  0
   -3.7768   58.4865   -7.0585 C   0  0  0  0  0  0
   -2.4478   57.7428   -7.2880 C   0  0  0  0  0  0
   -2.5284   56.2691   -6.8850 C   0  0  0  0  0  0
   -2.9570   55.2886   -8.0044 C   0  0  0  0  0  0
   -2.8136   60.8496   -5.3603 C   0  0  0  0  0  0
   -1.7289   61.7452   -4.7853 C   0  0  0  0  0  0
   -2.8396   60.7303   -6.6733 N   0  0  0  0  0  0
   -6.9190   56.5339   -7.9560 O   0  0  0  0  0  0
   -7.2521   56.9329   -9.9921 O   0  0  0  0  0  0
   -4.9518   58.0765   -9.6863 O   0  0  0  0  0  0
   -4.9918   61.9030   -7.8549 O   0  0  0  0  0  0
   -4.7512   57.7435   -7.8201 O   0  0  0  0  0  0
   -2.0711   57.7575   -8.6557 O   0  0  0  0  0  0
   -1.2051   55.9289   -6.5378 O   0  0  0  0  0  0
   -1.9516   55.1814   -9.0004 O   0  0  0  0  0  0
   -3.6612   60.2744   -4.6755 O   0  0  0  0  0  0
   -2.1555   61.1715   -7.2330 H   0  0  0  0  0  0
   -4.0505   58.3038   -9.3863 H   0  0  0  0  0  0
   -4.7019   61.8563   -8.7878 H   0  0  0  0  0  0
   -1.1846   57.4637   -8.3517 H   0  0  0  0  0  0
   -1.0682   56.3701   -5.6882 H   0  0  0  0  0  0
   -2.4132   54.5908   -9.6271 H   0  0  0  0  0  0
   -7.8409   56.2040  -10.0018 H   0  0  0  0  0  0
  1 13  2  0  0  0
  1 14  1  0  0  0
  2  1  1  0  0  0
  2  3  1  0  0  0
  2 15  1  0  0  0
  2 17  1  0  0  0
  3  4  1  0  0  0
  4  5  1  0  0  0
  4 16  1  0  0  0
  5  6  1  0  0  0
  5 12  1  0  0  0
  6  7  1  0  0  0
  6 17  1  0  0  0
  7  8  1  0  0  0
  7 18  1  0  0  0
  8  9  1  0  0  0
  8 19  1  0  0  0
  9 20  1  0  0  0
 10 11  1  0  0  0
 10 12  1  0  0  0
 10 21  2  0  0  0
 12 22  1  0  0  0
 14 28  1  0  0  0
 15 23  1  0  0  0
 16 24  1  0  0  0
 18 25  1  0  0  0
 19 26  1  0  0  0
 20 27  1  0  0  0
M  END
>  <CHROM.0>
-84.09337675,172.51907990,-65.03175344,65.81736770,29.07144720,54.51812076
-118.60816526,-68.02929986,115.43863485,-31.82734679,-90.11444923

>  <CHROM.1>
-178.78213835,-102.42764160,-148.04964814,-61.49259462,67.70053491,-176.99928508
90.65689659,165.84273460,68.71560672,73.02018585,-176.36894661,-3.98657064
58.40820870,-7.60812048,1.91856637,0.45902111,-2.73527078

>  <FORMUL>
      SIA    C11 H19 N1 O9

>  <HET>
 SIA  A 467      39

>  <HETNAM>
     SIA O-SIALIC ACID

>  <Name>
SIA.pdb

>  <RI>
0

>  <Rbt.Current_Directory>
/home/malgorzata/Desktop/rDOCK_IFD/Wyniki/12_neuraminidase/IFD

>  <Rbt.Executable>
rbdock ($Id: //depot/dev/client3/rdock/2013.1/src/exe/rbdock.cxx#4 $)

>  <Rbt.Library>
libRbt.so (2013.1, Build901 2013/11/27)

>  <Rbt.Parameter_File>
/home/malgorzata/Desktop/rDock_2013.1_src/data/scripts/dock.prm

>  <Rbt.Receptor>
cavity.prm

>  <SCORE>
-45.1036

>  <SCORE.INTER>
-13.8681

>  <SCORE.INTER.CONST>
1

>  <SCORE.INTER.POLAR>
-3.63964

>  <SCORE.INTER.REPUL>
0

>  <SCORE.INTER.ROT>
5

>  <SCORE.INTER.VDW>
-11.8934

>  <SCORE.INTER.norm>
-0.660388

>  <SCORE.INTRA>
-14.5397

>  <SCORE.INTRA.DIHEDRAL>
-15.2584

>  <SCORE.INTRA.DIHEDRAL.0>
24.6845

>  <SCORE.INTRA.POLAR>
0.0368887

>  <SCORE.INTRA.POLAR.0>
-0.967721

>  <SCORE.INTRA.REPUL>
0

>  <SCORE.INTRA.REPUL.0>
0

>  <SCORE.INTRA.VDW>
-7.03586

>  <SCORE.INTRA.VDW.0>
7.44847

>  <SCORE.INTRA.norm>
-0.692365

>  <SCORE.RESTR>
0

>  <SCORE.RESTR.CAVITY>
0

>  <SCORE.RESTR.norm>
0

>  <SCORE.SYSTEM>
-16.6958

>  <SCORE.SYSTEM.CONST>
0

>  <SCORE.SYSTEM.DIHEDRAL>
4.70137

>  <SCORE.SYSTEM.POLAR>
-4.91593

>  <SCORE.SYSTEM.VDW>
-2.33227

>  <SCORE.SYSTEM.norm>
-0.795036

>  <SCORE.heavy>
21

>  <SCORE.norm>
-2.14779

$$$$
