SIA.pdb
  rDOCK(R)          3D
libRbt.so/2013.1/901 2013/11/27
 28 28  0  0  0  0  0  0  0  0999 V2000
   -2.8228   57.4845   -4.5482 C   0  0  0  0  0  0
   -2.0761   58.4193   -5.5032 C   0  0  0  0  0  0
   -0.6283   58.2990   -5.9613 C   0  0  0  0  0  0
   -0.3712   58.9851   -7.2942 C   0  0  0  0  0  0
   -1.3786   60.0959   -7.5782 C   0  0  0  0  0  0
   -2.7800   59.4809   -7.6483 C   0  0  0  0  0  0
   -3.8663   60.5608   -7.8082 C   0  0  0  0  0  0
   -3.8319   61.2212   -9.1878 C   0  0  0  0  0  0
   -4.0401   60.2713  -10.3930 C   0  0  0  0  0  0
   -0.8250   61.8861   -9.2615 C   0  0  0  0  0  0
   -0.3433   62.0856  -10.6889 C   0  0  0  0  0  0
   -0.9793   60.6382   -8.8644 N   0  0  0  0  0  0
   -2.1374   57.2095   -3.5458 O   0  0  0  0  0  0
   -3.9071   56.8779   -4.6295 O   0  0  0  0  0  0
   -2.5459   59.5403   -4.7508 O   0  0  0  0  0  0
    0.9061   59.5737   -7.2165 O   0  0  0  0  0  0
   -3.1102   58.8056   -6.4167 O   0  0  0  0  0  0
   -5.1685   60.0167   -7.6639 O   0  0  0  0  0  0
   -4.9295   62.1059   -9.1793 O   0  0  0  0  0  0
   -3.8419   60.9548  -11.6209 O   0  0  0  0  0  0
   -1.0983   62.8116   -8.4954 O   0  0  0  0  0  0
   -0.7470   59.8868   -9.4622 H   0  0  0  0  0  0
   -2.2996   60.3014   -5.3111 H   0  0  0  0  0  0
    0.8813   60.1954   -6.4619 H   0  0  0  0  0  0
   -5.4946   60.9416   -7.7153 H   0  0  0  0  0  0
   -4.7888   62.6565   -9.9617 H   0  0  0  0  0  0
   -4.6165   61.5498  -11.5968 H   0  0  0  0  0  0
   -4.4388   56.9694   -5.3956 H   0  0  0  0  0  0
  1 13  2  0  0  0
  1 14  1  0  0  0
  2  1  1  0  0  0
  2  3  1  0  0  0
  2 15  1  0  0  0
  2 17  1  0  0  0
  3  4  1  0  0  0
  4  5  1  0  0  0
  4 16  1  0  0  0
  5  6  1  0  0  0
  5 12  1  0  0  0
  6  7  1  0  0  0
  6 17  1  0  0  0
  7  8  1  0  0  0
  7 18  1  0  0  0
  8  9  1  0  0  0
  8 19  1  0  0  0
  9 20  1  0  0  0
 10 11  1  0  0  0
 10 12  1  0  0  0
 10 21  2  0  0  0
 12 22  1  0  0  0
 14 28  1  0  0  0
 15 23  1  0  0  0
 16 24  1  0  0  0
 18 25  1  0  0  0
 19 26  1  0  0  0
 20 27  1  0  0  0
M  END
>  <CHROM.0>
65.25992111,61.54145912,-163.15101403,-44.35531588,-150.26649408,170.61514930
156.87869100,11.47782632

>  <CHROM.1>
-0.97343452,45.38838834,-169.92089711,-58.60262218,-133.14597430,70.09243624
59.75538210,173.87500865,-173.47032450,167.77764943,-68.06654333,-2.41628188
59.89339715,-7.54448519,1.52057366,0.08920155,2.19616537

>  <FORMUL>
      SIA    C11 H19 N1 O9

>  <HET>
 SIA  A 467      39

>  <HETNAM>
     SIA O-SIALIC ACID

>  <Name>
SIA.pdb

>  <RI>
1.2123e+07

>  <Rbt.Current_Directory>
/home/malgorzata/Desktop/rDOCK_IFD/Wyniki/12_neuraminidase/IFD

>  <Rbt.Executable>
rbdock ($Id: //depot/dev/client3/rdock/2013.1/src/exe/rbdock.cxx#4 $)

>  <Rbt.Library>
libRbt.so (2013.1, Build901 2013/11/27)

>  <Rbt.Parameter_File>
/home/malgorzata/Desktop/rDock_2013.1_src/data/scripts/dock.prm

>  <Rbt.Receptor>
cavity.prm

>  <SCORE>
-35.678

>  <SCORE.INTER>
-11.643

>  <SCORE.INTER.CONST>
1

>  <SCORE.INTER.POLAR>
-3.82462

>  <SCORE.INTER.REPUL>
0

>  <SCORE.INTER.ROT>
5

>  <SCORE.INTER.VDW>
-9.03931

>  <SCORE.INTER.norm>
-0.55443

>  <SCORE.INTRA>
-15.0481

>  <SCORE.INTRA.DIHEDRAL>
-19.1779

>  <SCORE.INTRA.DIHEDRAL.0>
24.6845

>  <SCORE.INTRA.POLAR>
0.562742

>  <SCORE.INTRA.POLAR.0>
-0.967721

>  <SCORE.INTRA.REPUL>
0

>  <SCORE.INTRA.REPUL.0>
0

>  <SCORE.INTRA.VDW>
-7.3725

>  <SCORE.INTRA.VDW.0>
7.44847

>  <SCORE.INTRA.norm>
-0.716578

>  <SCORE.RESTR>
0

>  <SCORE.RESTR.CAVITY>
0

>  <SCORE.RESTR.norm>
0

>  <SCORE.SYSTEM>
-8.98686

>  <SCORE.SYSTEM.CONST>
0

>  <SCORE.SYSTEM.DIHEDRAL>
2.33526

>  <SCORE.SYSTEM.POLAR>
-2.23158

>  <SCORE.SYSTEM.VDW>
-2.56712

>  <SCORE.SYSTEM.norm>
-0.427946

>  <SCORE.heavy>
21

>  <SCORE.norm>
-1.69895

$$$$
SIA.pdb
  rDOCK(R)          3D
libRbt.so/2013.1/901 2013/11/27
 28 28  0  0  0  0  0  0  0  0999 V2000
    2.1422   55.8070   -6.7538 C   0  0  0  0  0  0
    0.8753   55.9711   -7.5973 C   0  0  0  0  0  0
    0.6168   55.4025   -8.9867 C   0  0  0  0  0  0
   -0.8642   55.2374   -9.2916 C   0  0  0  0  0  0
   -1.7352   56.1765   -8.4615 C   0  0  0  0  0  0
   -1.5383   55.8454   -6.9787 C   0  0  0  0  0  0
   -2.2913   56.8362   -6.0714 C   0  0  0  0  0  0
   -2.0911   56.5323   -4.5854 C   0  0  0  0  0  0
   -2.9683   57.3523   -3.6075 C   0  0  0  0  0  0
   -3.8372   56.4504   -9.8221 C   0  0  0  0  0  0
   -5.2218   55.8584  -10.0265 C   0  0  0  0  0  0
   -3.0943   55.8930   -8.8860 N   0  0  0  0  0  0
    1.9053   55.2269   -5.6779 O   0  0  0  0  0  0
    3.3078   56.2251   -6.8832 O   0  0  0  0  0  0
    0.9056   57.3777   -7.3439 O   0  0  0  0  0  0
   -1.0464   55.5698  -10.6481 O   0  0  0  0  0  0
   -0.1527   55.9780   -6.5991 O   0  0  0  0  0  0
   -1.8411   58.1675   -6.2657 O   0  0  0  0  0  0
   -2.4865   55.1861   -4.4476 O   0  0  0  0  0  0
   -4.1348   56.6312   -3.2422 O   0  0  0  0  0  0
   -3.4059   57.4174  -10.4523 O   0  0  0  0  0  0
   -3.4206   55.1063   -8.3856 H   0  0  0  0  0  0
   -0.0408   57.6171   -7.3129 H   0  0  0  0  0  0
   -0.5943   54.8761  -11.1685 H   0  0  0  0  0  0
   -2.4899   58.2147   -7.0015 H   0  0  0  0  0  0
   -3.3627   55.1595   -4.8561 H   0  0  0  0  0  0
   -4.4687   56.4098   -4.1333 H   0  0  0  0  0  0
    3.5504   56.7068   -7.6495 H   0  0  0  0  0  0
  1 13  2  0  0  0
  1 14  1  0  0  0
  2  1  1  0  0  0
  2  3  1  0  0  0
  2 15  1  0  0  0
  2 17  1  0  0  0
  3  4  1  0  0  0
  4  5  1  0  0  0
  4 16  1  0  0  0
  5  6  1  0  0  0
  5 12  1  0  0  0
  6  7  1  0  0  0
  6 17  1  0  0  0
  7  8  1  0  0  0
  7 18  1  0  0  0
  8  9  1  0  0  0
  8 19  1  0  0  0
  9 20  1  0  0  0
 10 11  1  0  0  0
 10 12  1  0  0  0
 10 21  2  0  0  0
 12 22  1  0  0  0
 14 28  1  0  0  0
 15 23  1  0  0  0
 16 24  1  0  0  0
 18 25  1  0  0  0
 19 26  1  0  0  0
 20 27  1  0  0  0
M  END
>  <CHROM.0>
-63.87345208,78.78688305,-134.57139789,-34.41123803,115.22927244,-33.20149756
160.87267961,10.93588679

>  <CHROM.1>
-4.06978257,-119.01266624,-146.57737424,67.53070472,-92.26593508,-179.23648469
-171.73268979,85.99864881,95.97280134,-51.72288731,-52.53727568,-1.28588289
56.26014694,-7.23878122,-0.47846652,0.10146448,-1.65162934

>  <FORMUL>
      SIA    C11 H19 N1 O9

>  <HET>
 SIA  A 467      39

>  <HETNAM>
     SIA O-SIALIC ACID

>  <Name>
SIA.pdb

>  <RI>
1.2123e+07

>  <Rbt.Current_Directory>
/home/malgorzata/Desktop/rDOCK_IFD/Wyniki/12_neuraminidase/IFD

>  <Rbt.Executable>
rbdock ($Id: //depot/dev/client3/rdock/2013.1/src/exe/rbdock.cxx#4 $)

>  <Rbt.Library>
libRbt.so (2013.1, Build901 2013/11/27)

>  <Rbt.Parameter_File>
/home/malgorzata/Desktop/rDock_2013.1_src/data/scripts/dock.prm

>  <Rbt.Receptor>
cavity.prm

>  <SCORE>
-33.5203

>  <SCORE.INTER>
-15.2593

>  <SCORE.INTER.CONST>
1

>  <SCORE.INTER.POLAR>
-3.89972

>  <SCORE.INTER.REPUL>
0.0742032

>  <SCORE.INTER.ROT>
5

>  <SCORE.INTER.VDW>
-12.7712

>  <SCORE.INTER.norm>
-0.726631

>  <SCORE.INTRA>
-10.6751

>  <SCORE.INTRA.DIHEDRAL>
-13.2624

>  <SCORE.INTRA.DIHEDRAL.0>
24.6845

>  <SCORE.INTRA.POLAR>
0.458532

>  <SCORE.INTRA.POLAR.0>
-0.967721

>  <SCORE.INTRA.REPUL>
0

>  <SCORE.INTRA.REPUL.0>
0

>  <SCORE.INTRA.VDW>
-5.60291

>  <SCORE.INTRA.VDW.0>
7.44847

>  <SCORE.INTRA.norm>
-0.508338

>  <SCORE.RESTR>
0

>  <SCORE.RESTR.CAVITY>
0

>  <SCORE.RESTR.norm>
0

>  <SCORE.SYSTEM>
-7.58594

>  <SCORE.SYSTEM.CONST>
0

>  <SCORE.SYSTEM.DIHEDRAL>
3.85083

>  <SCORE.SYSTEM.POLAR>
-2.26872

>  <SCORE.SYSTEM.VDW>
-1.79771

>  <SCORE.SYSTEM.norm>
-0.361235

>  <SCORE.heavy>
21

>  <SCORE.norm>
-1.5962

$$$$
SIA.pdb
  rDOCK(R)          3D
libRbt.so/2013.1/901 2013/11/27
 28 28  0  0  0  0  0  0  0  0999 V2000
   -2.6367   56.7890   -3.7680 C   0  0  0  0  0  0
   -2.3815   57.1871   -5.2239 C   0  0  0  0  0  0
   -1.0633   57.1000   -5.9824 C   0  0  0  0  0  0
   -1.2532   57.0047   -7.4885 C   0  0  0  0  0  0
   -2.5851   57.5951   -7.9434 C   0  0  0  0  0  0
   -3.7217   56.8005   -7.2923 C   0  0  0  0  0  0
   -5.0975   57.4175   -7.6059 C   0  0  0  0  0  0
   -5.4004   57.4325   -9.1055 C   0  0  0  0  0  0
   -5.2645   56.0718   -9.8323 C   0  0  0  0  0  0
   -2.5556   58.3252  -10.3539 C   0  0  0  0  0  0
   -2.5265   57.7831  -11.7733 C   0  0  0  0  0  0
   -2.5898   57.4305   -9.3858 N   0  0  0  0  0  0
   -1.8071   57.3078   -2.9981 O   0  0  0  0  0  0
   -3.4228   55.9849   -3.2335 O   0  0  0  0  0  0
   -3.0410   58.4326   -4.9843 O   0  0  0  0  0  0
   -0.2236   57.7594   -8.0836 O   0  0  0  0  0  0
   -3.6203   56.8380   -5.8535 O   0  0  0  0  0  0
   -6.1491   56.6840   -6.9986 O   0  0  0  0  0  0
   -6.7604   57.7957   -9.1837 O   0  0  0  0  0  0
   -6.1508   55.1095   -9.2822 O   0  0  0  0  0  0
   -2.5795   59.5263  -10.0799 O   0  0  0  0  0  0
   -2.5533   56.4648   -9.5907 H   0  0  0  0  0  0
   -3.0684   58.8422   -5.8705 H   0  0  0  0  0  0
   -0.3196   57.6486   -9.0505 H   0  0  0  0  0  0
   -5.6987   56.8631   -6.1444 H   0  0  0  0  0  0
   -7.2066   57.1421   -8.6279 H   0  0  0  0  0  0
   -5.8519   54.3204   -9.7747 H   0  0  0  0  0  0
   -3.2455   55.6576   -2.3736 H   0  0  0  0  0  0
  1 13  2  0  0  0
  1 14  1  0  0  0
  2  1  1  0  0  0
  2  3  1  0  0  0
  2 15  1  0  0  0
  2 17  1  0  0  0
  3  4  1  0  0  0
  4  5  1  0  0  0
  4 16  1  0  0  0
  5  6  1  0  0  0
  5 12  1  0  0  0
  6  7  1  0  0  0
  6 17  1  0  0  0
  7  8  1  0  0  0
  7 18  1  0  0  0
  8  9  1  0  0  0
  8 19  1  0  0  0
  9 20  1  0  0  0
 10 11  1  0  0  0
 10 12  1  0  0  0
 10 21  2  0  0  0
 12 22  1  0  0  0
 14 28  1  0  0  0
 15 23  1  0  0  0
 16 24  1  0  0  0
 18 25  1  0  0  0
 19 26  1  0  0  0
 20 27  1  0  0  0
M  END
>  <CHROM.0>
-177.17600332,61.37048520,108.54254859,-34.33630948,113.21662173,-176.04772328
116.18102679,11.93449119

>  <CHROM.1>
158.91606768,50.95578651,-174.53090576,176.61468831,-113.49733652,61.14465572
53.12824631,58.06052351,60.12721291,-55.12567159,-173.50052822,-3.41867333
57.24259610,-7.43367636,1.24126834,0.29162702,1.73359943

>  <FORMUL>
      SIA    C11 H19 N1 O9

>  <HET>
 SIA  A 467      39

>  <HETNAM>
     SIA O-SIALIC ACID

>  <Name>
SIA.pdb

>  <RI>
1.2123e+07

>  <Rbt.Current_Directory>
/home/malgorzata/Desktop/rDOCK_IFD/Wyniki/12_neuraminidase/IFD

>  <Rbt.Executable>
rbdock ($Id: //depot/dev/client3/rdock/2013.1/src/exe/rbdock.cxx#4 $)

>  <Rbt.Library>
libRbt.so (2013.1, Build901 2013/11/27)

>  <Rbt.Parameter_File>
/home/malgorzata/Desktop/rDock_2013.1_src/data/scripts/dock.prm

>  <Rbt.Receptor>
cavity.prm

>  <SCORE>
-40.2279

>  <SCORE.INTER>
-16.8988

>  <SCORE.INTER.CONST>
1

>  <SCORE.INTER.POLAR>
-3.46636

>  <SCORE.INTER.REPUL>
0

>  <SCORE.INTER.ROT>
5

>  <SCORE.INTER.VDW>
-15.5131

>  <SCORE.INTER.norm>
-0.804703

>  <SCORE.INTRA>
-15.5572

>  <SCORE.INTRA.DIHEDRAL>
-18.1379

>  <SCORE.INTRA.DIHEDRAL.0>
24.6845

>  <SCORE.INTRA.POLAR>
0.231366

>  <SCORE.INTRA.POLAR.0>
-0.967721

>  <SCORE.INTRA.REPUL>
0

>  <SCORE.INTRA.REPUL.0>
0

>  <SCORE.INTRA.VDW>
-7.27484

>  <SCORE.INTRA.VDW.0>
7.44847

>  <SCORE.INTRA.norm>
-0.740817

>  <SCORE.RESTR>
0

>  <SCORE.RESTR.CAVITY>
0

>  <SCORE.RESTR.norm>
0

>  <SCORE.SYSTEM>
-7.77195

>  <SCORE.SYSTEM.CONST>
0

>  <SCORE.SYSTEM.DIHEDRAL>
2.25305

>  <SCORE.SYSTEM.POLAR>
-2.26897

>  <SCORE.SYSTEM.REPUL>
0.320734

>  <SCORE.SYSTEM.VDW>
-2.78765

>  <SCORE.SYSTEM.norm>
-0.370093

>  <SCORE.heavy>
21

>  <SCORE.norm>
-1.91561

$$$$
SIA.pdb
  rDOCK(R)          3D
libRbt.so/2013.1/901 2013/11/27
 28 28  0  0  0  0  0  0  0  0999 V2000
   -5.8154   56.1522   -8.2698 C   0  0  0  0  0  0
   -4.6815   57.1604   -8.4723 C   0  0  0  0  0  0
   -4.7127   58.6520   -8.1647 C   0  0  0  0  0  0
   -3.3290   59.2341   -7.9197 C   0  0  0  0  0  0
   -2.2287   58.4150   -8.5890 C   0  0  0  0  0  0
   -2.2379   57.0030   -7.9945 C   0  0  0  0  0  0
   -1.2349   56.0793   -8.7106 C   0  0  0  0  0  0
    0.2149   56.5199   -8.4999 C   0  0  0  0  0  0
    0.7277   56.4684   -7.0395 C   0  0  0  0  0  0
   -0.4281   59.3552   -7.0996 C   0  0  0  0  0  0
    0.9040   60.0854   -7.1390 C   0  0  0  0  0  0
   -0.9977   59.1126   -8.2638 N   0  0  0  0  0  0
   -6.5598   56.4818   -7.3278 O   0  0  0  0  0  0
   -6.0666   55.0441   -8.7789 O   0  0  0  0  0  0
   -4.4926   56.6603   -9.7982 O   0  0  0  0  0  0
   -3.3146   60.5209   -8.4922 O   0  0  0  0  0  0
   -3.5210   56.3709   -8.1838 O   0  0  0  0  0  0
   -1.3162   54.7474   -8.2288 O   0  0  0  0  0  0
    0.9748   55.5802   -9.2259 O   0  0  0  0  0  0
    2.1228   56.7221   -6.9799 O   0  0  0  0  0  0
   -0.9944   59.0193   -6.0581 O   0  0  0  0  0  0
   -0.5465   59.3605   -9.1070 H   0  0  0  0  0  0
   -3.6841   57.1210  -10.0950 H   0  0  0  0  0  0
   -3.9571   61.0580   -7.9872 H   0  0  0  0  0  0
   -2.2542   54.7641   -8.5195 H   0  0  0  0  0  0
    1.8523   55.9833   -9.2782 H   0  0  0  0  0  0
    2.1649   57.5076   -7.5594 H   0  0  0  0  0  0
   -5.4697   54.6648   -9.3936 H   0  0  0  0  0  0
  1 13  2  0  0  0
  1 14  1  0  0  0
  2  1  1  0  0  0
  2  3  1  0  0  0
  2 15  1  0  0  0
  2 17  1  0  0  0
  3  4  1  0  0  0
  4  5  1  0  0  0
  4 16  1  0  0  0
  5  6  1  0  0  0
  5 12  1  0  0  0
  6  7  1  0  0  0
  6 17  1  0  0  0
  7  8  1  0  0  0
  7 18  1  0  0  0
  8  9  1  0  0  0
  8 19  1  0  0  0
  9 20  1  0  0  0
 10 11  1  0  0  0
 10 12  1  0  0  0
 10 21  2  0  0  0
 12 22  1  0  0  0
 14 28  1  0  0  0
 15 23  1  0  0  0
 16 24  1  0  0  0
 18 25  1  0  0  0
 19 26  1  0  0  0
 20 27  1  0  0  0
M  END
>  <CHROM.0>
-63.46774913,63.04299360,108.18700318,-35.64722574,-162.71157653,162.00973059
-91.96302831,-3.37274324

>  <CHROM.1>
3.14016632,-29.31428577,-172.74769691,64.94675654,62.27158927,65.40404494
63.79067331,59.44561082,172.17122195,166.11985195,46.86934889,-2.21464191
57.36491495,-8.07490008,-2.96064674,-0.10431867,0.20300393

>  <FORMUL>
      SIA    C11 H19 N1 O9

>  <HET>
 SIA  A 467      39

>  <HETNAM>
     SIA O-SIALIC ACID

>  <Name>
SIA.pdb

>  <RI>
1.2123e+07

>  <Rbt.Current_Directory>
/home/malgorzata/Desktop/rDOCK_IFD/Wyniki/12_neuraminidase/IFD

>  <Rbt.Executable>
rbdock ($Id: //depot/dev/client3/rdock/2013.1/src/exe/rbdock.cxx#4 $)

>  <Rbt.Library>
libRbt.so (2013.1, Build901 2013/11/27)

>  <Rbt.Parameter_File>
/home/malgorzata/Desktop/rDock_2013.1_src/data/scripts/dock.prm

>  <Rbt.Receptor>
cavity.prm

>  <SCORE>
-34.9064

>  <SCORE.INTER>
-10.4676

>  <SCORE.INTER.CONST>
1

>  <SCORE.INTER.POLAR>
-2.76019

>  <SCORE.INTER.REPUL>
0.128414

>  <SCORE.INTER.ROT>
5

>  <SCORE.INTER.VDW>
-12.125

>  <SCORE.INTER.norm>
-0.498458

>  <SCORE.INTRA>
-15.7026

>  <SCORE.INTRA.DIHEDRAL>
-19.0829

>  <SCORE.INTRA.DIHEDRAL.0>
24.6845

>  <SCORE.INTRA.POLAR>
0.502064

>  <SCORE.INTRA.POLAR.0>
-0.967721

>  <SCORE.INTRA.REPUL>
0

>  <SCORE.INTRA.REPUL.0>
0

>  <SCORE.INTRA.VDW>
-7.86814

>  <SCORE.INTRA.VDW.0>
7.44847

>  <SCORE.INTRA.norm>
-0.747742

>  <SCORE.RESTR>
0

>  <SCORE.RESTR.CAVITY>
0

>  <SCORE.RESTR.norm>
0

>  <SCORE.SYSTEM>
-8.73623

>  <SCORE.SYSTEM.CONST>
0

>  <SCORE.SYSTEM.DIHEDRAL>
2.12098

>  <SCORE.SYSTEM.POLAR>
-2.26453

>  <SCORE.SYSTEM.VDW>
-2.09731

>  <SCORE.SYSTEM.norm>
-0.416011

>  <SCORE.heavy>
21

>  <SCORE.norm>
-1.66221

$$$$
SIA.pdb
  rDOCK(R)          3D
libRbt.so/2013.1/901 2013/11/27
 28 28  0  0  0  0  0  0  0  0999 V2000
    2.2231   55.9466   -7.2007 C   0  0  0  0  0  0
    1.0819   56.8551   -6.7363 C   0  0  0  0  0  0
    0.1320   56.6135   -5.5701 C   0  0  0  0  0  0
   -0.4663   57.8988   -5.0191 C   0  0  0  0  0  0
   -0.4825   59.0208   -6.0537 C   0  0  0  0  0  0
    0.9608   59.3318   -6.4626 C   0  0  0  0  0  0
    1.0175   60.3703   -7.5985 C   0  0  0  0  0  0
    2.4111   60.4771   -8.2205 C   0  0  0  0  0  0
    2.5720   61.5455   -9.3299 C   0  0  0  0  0  0
   -1.0654   60.4941   -4.0956 C   0  0  0  0  0  0
   -1.7826   61.7842   -3.7341 C   0  0  0  0  0  0
   -1.0876   60.1483   -5.3679 N   0  0  0  0  0  0
    3.3337   56.3939   -6.8594 O   0  0  0  0  0  0
    2.2609   54.9348   -7.9252 O   0  0  0  0  0  0
    0.6219   56.9442   -8.0869 O   0  0  0  0  0  0
   -1.8016   57.6170   -4.6706 O   0  0  0  0  0  0
    1.6092   58.1608   -7.0011 O   0  0  0  0  0  0
    0.1374   60.0325   -8.6587 O   0  0  0  0  0  0
    3.2404   60.8781   -7.1532 O   0  0  0  0  0  0
    1.7816   61.2251  -10.4644 O   0  0  0  0  0  0
   -0.5093   59.7658   -3.2719 O   0  0  0  0  0  0
   -1.5144   60.7316   -6.0413 H   0  0  0  0  0  0
   -0.1697   57.5115   -8.0137 H   0  0  0  0  0  0
   -2.1538   58.4223   -4.2419 H   0  0  0  0  0  0
   -0.5877   60.3475   -8.0759 H   0  0  0  0  0  0
    4.1011   61.0213   -7.5703 H   0  0  0  0  0  0
    2.0003   61.9911  -11.0301 H   0  0  0  0  0  0
    1.4665   54.5709   -8.2637 H   0  0  0  0  0  0
  1 13  2  0  0  0
  1 14  1  0  0  0
  2  1  1  0  0  0
  2  3  1  0  0  0
  2 15  1  0  0  0
  2 17  1  0  0  0
  3  4  1  0  0  0
  4  5  1  0  0  0
  4 16  1  0  0  0
  5  6  1  0  0  0
  5 12  1  0  0  0
  6  7  1  0  0  0
  6 17  1  0  0  0
  7  8  1  0  0  0
  7 18  1  0  0  0
  8  9  1  0  0  0
  8 19  1  0  0  0
  9 20  1  0  0  0
 10 11  1  0  0  0
 10 12  1  0  0  0
 10 21  2  0  0  0
 12 22  1  0  0  0
 14 28  1  0  0  0
 15 23  1  0  0  0
 16 24  1  0  0  0
 18 25  1  0  0  0
 19 26  1  0  0  0
 20 27  1  0  0  0
M  END
>  <CHROM.0>
65.94286696,64.41825012,-122.74330050,37.02169733,110.91773190,54.68703363
143.98594352,8.90061440

>  <CHROM.1>
-3.28729755,-104.13000403,179.12941826,174.89278910,31.03613770,-167.92276902
-177.37412305,75.91792659,-65.10865236,-175.02503595,179.41585511,0.78098522
58.88311607,-6.69389349,0.00980194,-0.89517893,2.90222563

>  <FORMUL>
      SIA    C11 H19 N1 O9

>  <HET>
 SIA  A 467      39

>  <HETNAM>
     SIA O-SIALIC ACID

>  <Name>
SIA.pdb

>  <RI>
1.2123e+07

>  <Rbt.Current_Directory>
/home/malgorzata/Desktop/rDOCK_IFD/Wyniki/12_neuraminidase/IFD

>  <Rbt.Executable>
rbdock ($Id: //depot/dev/client3/rdock/2013.1/src/exe/rbdock.cxx#4 $)

>  <Rbt.Library>
libRbt.so (2013.1, Build901 2013/11/27)

>  <Rbt.Parameter_File>
/home/malgorzata/Desktop/rDock_2013.1_src/data/scripts/dock.prm

>  <Rbt.Receptor>
cavity.prm

>  <SCORE>
-31.041

>  <SCORE.INTER>
-12.5596

>  <SCORE.INTER.CONST>
1

>  <SCORE.INTER.POLAR>
-3.62158

>  <SCORE.INTER.REPUL>
0

>  <SCORE.INTER.ROT>
5

>  <SCORE.INTER.VDW>
-10.6462

>  <SCORE.INTER.norm>
-0.598075

>  <SCORE.INTRA>
-11.9491

>  <SCORE.INTRA.DIHEDRAL>
-19.661

>  <SCORE.INTRA.DIHEDRAL.0>
24.6845

>  <SCORE.INTRA.POLAR>
0.967721

>  <SCORE.INTRA.POLAR.0>
-0.967721

>  <SCORE.INTRA.REPUL>
0

>  <SCORE.INTRA.REPUL.0>
0

>  <SCORE.INTRA.VDW>
-5.40887

>  <SCORE.INTRA.VDW.0>
7.44847

>  <SCORE.INTRA.norm>
-0.569005

>  <SCORE.RESTR>
0

>  <SCORE.RESTR.CAVITY>
0

>  <SCORE.RESTR.norm>
0

>  <SCORE.SYSTEM>
-6.53234

>  <SCORE.SYSTEM.CONST>
0

>  <SCORE.SYSTEM.DIHEDRAL>
2.38117

>  <SCORE.SYSTEM.POLAR>
-2.24392

>  <SCORE.SYSTEM.VDW>
-0.0936112

>  <SCORE.SYSTEM.norm>
-0.311064

>  <SCORE.heavy>
21

>  <SCORE.norm>
-1.47814

$$$$
SIA.pdb
  rDOCK(R)          3D
libRbt.so/2013.1/901 2013/11/27
 28 28  0  0  0  0  0  0  0  0999 V2000
   -2.7988   57.3390   -4.7558 C   0  0  0  0  0  0
   -1.9215   58.5706   -4.9940 C   0  0  0  0  0  0
   -0.4185   58.6844   -4.7736 C   0  0  0  0  0  0
    0.2219   59.7749   -5.6186 C   0  0  0  0  0  0
   -0.7746   60.8602   -6.0168 C   0  0  0  0  0  0
   -1.8817   60.2230   -6.8627 C   0  0  0  0  0  0
   -2.9932   61.2350   -7.1979 C   0  0  0  0  0  0
   -4.0404   60.6550   -8.1505 C   0  0  0  0  0  0
   -4.9275   59.5271   -7.5682 C   0  0  0  0  0  0
    0.7705   61.6269   -7.8524 C   0  0  0  0  0  0
    1.4030   62.8737   -8.4480 C   0  0  0  0  0  0
    0.0014   61.8075   -6.7966 N   0  0  0  0  0  0
   -2.2913   56.5689   -3.9193 O   0  0  0  0  0  0
   -3.8365   56.9182   -5.3000 O   0  0  0  0  0  0
   -2.8603   59.3633   -4.2633 O   0  0  0  0  0  0
    1.2200   60.3777   -4.8284 O   0  0  0  0  0  0
   -2.5483   59.1712   -6.1340 O   0  0  0  0  0  0
   -3.6986   61.6393   -6.0353 O   0  0  0  0  0  0
   -4.8988   61.7385   -8.4278 O   0  0  0  0  0  0
   -5.8970   59.1018   -8.5134 O   0  0  0  0  0  0
    0.9652   60.4885   -8.2816 O   0  0  0  0  0  0
   -0.1773   62.7163   -6.4529 H   0  0  0  0  0  0
   -2.6106   59.2001   -3.3333 H   0  0  0  0  0  0
    1.6241   61.0793   -5.3769 H   0  0  0  0  0  0
   -4.0545   62.3743   -6.5810 H   0  0  0  0  0  0
   -4.3481   62.3437   -8.9434 H   0  0  0  0  0  0
   -6.3567   58.4282   -7.9753 H   0  0  0  0  0  0
   -4.2356   57.4097   -5.9909 H   0  0  0  0  0  0
  1 13  2  0  0  0
  1 14  1  0  0  0
  2  1  1  0  0  0
  2  3  1  0  0  0
  2 15  1  0  0  0
  2 17  1  0  0  0
  3  4  1  0  0  0
  4  5  1  0  0  0
  4 16  1  0  0  0
  5  6  1  0  0  0
  5 12  1  0  0  0
  6  7  1  0  0  0
  6 17  1  0  0  0
  7  8  1  0  0  0
  7 18  1  0  0  0
  8  9  1  0  0  0
  8 19  1  0  0  0
  9 20  1  0  0  0
 10 11  1  0  0  0
 10 12  1  0  0  0
 10 21  2  0  0  0
 12 22  1  0  0  0
 14 28  1  0  0  0
 15 23  1  0  0  0
 16 24  1  0  0  0
 18 25  1  0  0  0
 19 26  1  0  0  0
 20 27  1  0  0  0
M  END
>  <CHROM.0>
67.35689712,60.27171838,167.43175607,35.83530897,116.02650673,-160.06930296
136.10955930,11.36193123

>  <CHROM.1>
-1.79982272,24.37877246,82.09405068,-179.77596416,53.50534480,174.60592668
67.99617980,165.09393144,177.56019539,67.87753293,-178.72012106,-2.02544594
59.93238779,-6.41380709,-2.70736743,-0.25541978,-0.74755897

>  <FORMUL>
      SIA    C11 H19 N1 O9

>  <HET>
 SIA  A 467      39

>  <HETNAM>
     SIA O-SIALIC ACID

>  <Name>
SIA.pdb

>  <RI>
1.2123e+07

>  <Rbt.Current_Directory>
/home/malgorzata/Desktop/rDOCK_IFD/Wyniki/12_neuraminidase/IFD

>  <Rbt.Executable>
rbdock ($Id: //depot/dev/client3/rdock/2013.1/src/exe/rbdock.cxx#4 $)

>  <Rbt.Library>
libRbt.so (2013.1, Build901 2013/11/27)

>  <Rbt.Parameter_File>
/home/malgorzata/Desktop/rDock_2013.1_src/data/scripts/dock.prm

>  <Rbt.Receptor>
cavity.prm

>  <SCORE>
-34.5281

>  <SCORE.INTER>
-13.6398

>  <SCORE.INTER.CONST>
1

>  <SCORE.INTER.POLAR>
-4.0103

>  <SCORE.INTER.REPUL>
0.171753

>  <SCORE.INTER.ROT>
5

>  <SCORE.INTER.VDW>
-11.2636

>  <SCORE.INTER.norm>
-0.649516

>  <SCORE.INTRA>
-13.6669

>  <SCORE.INTRA.DIHEDRAL>
-19.6754

>  <SCORE.INTRA.DIHEDRAL.0>
24.6845

>  <SCORE.INTRA.POLAR>
0.953875

>  <SCORE.INTRA.POLAR.0>
-0.967721

>  <SCORE.INTRA.REPUL>
0.237642

>  <SCORE.INTRA.REPUL.0>
0

>  <SCORE.INTRA.VDW>
-8.26054

>  <SCORE.INTRA.VDW.0>
7.44847

>  <SCORE.INTRA.norm>
-0.650803

>  <SCORE.RESTR>
0

>  <SCORE.RESTR.CAVITY>
0

>  <SCORE.RESTR.norm>
0

>  <SCORE.SYSTEM>
-7.22144

>  <SCORE.SYSTEM.CONST>
0

>  <SCORE.SYSTEM.DIHEDRAL>
2.44829

>  <SCORE.SYSTEM.POLAR>
-2.24847

>  <SCORE.SYSTEM.REPUL>
0.00497485

>  <SCORE.SYSTEM.VDW>
-0.82565

>  <SCORE.SYSTEM.norm>
-0.343878

>  <SCORE.heavy>
21

>  <SCORE.norm>
-1.6442

$$$$
SIA.pdb
  rDOCK(R)          3D
libRbt.so/2013.1/901 2013/11/27
 28 28  0  0  0  0  0  0  0  0999 V2000
    1.1796   54.4777  -10.3002 C   0  0  0  0  0  0
    0.8766   54.9955   -8.8919 C   0  0  0  0  0  0
    1.8515   55.1145   -7.7274 C   0  0  0  0  0  0
    1.4290   56.1607   -6.7074 C   0  0  0  0  0  0
   -0.0753   56.4178   -6.7298 C   0  0  0  0  0  0
   -0.4609   56.9520   -8.1129 C   0  0  0  0  0  0
   -1.9857   57.1173   -8.2523 C   0  0  0  0  0  0
   -2.3778   57.8315   -9.5472 C   0  0  0  0  0  0
   -2.1538   57.0283  -10.8522 C   0  0  0  0  0  0
    0.3240   58.5581   -5.4631 C   0  0  0  0  0  0
   -0.2121   59.3894   -4.3095 C   0  0  0  0  0  0
   -0.2953   57.4185   -5.7013 N   0  0  0  0  0  0
    2.1576   53.7072  -10.3054 O   0  0  0  0  0  0
    0.7190   54.7544  -11.4233 O   0  0  0  0  0  0
   -0.2702   54.1434   -8.8405 O   0  0  0  0  0  0
    1.7590   55.6543   -5.4351 O   0  0  0  0  0  0
   -0.0953   56.0165   -9.1487 O   0  0  0  0  0  0
   -2.6464   55.8621   -8.2788 O   0  0  0  0  0  0
   -3.7689   58.0283   -9.4304 O   0  0  0  0  0  0
   -3.0550   55.9353  -10.9389 O   0  0  0  0  0  0
    1.3005   58.8789   -6.1425 O   0  0  0  0  0  0
   -1.0901   57.1576   -5.1758 H   0  0  0  0  0  0
    0.1096   53.2760   -8.6012 H   0  0  0  0  0  0
    2.7335   55.5756   -5.4104 H   0  0  0  0  0  0
   -2.4204   55.7916   -7.3256 H   0  0  0  0  0  0
   -3.8546   58.6345   -8.6818 H   0  0  0  0  0  0
   -2.8737   55.5129  -10.0768 H   0  0  0  0  0  0
    0.0001   55.3504  -11.5010 H   0  0  0  0  0  0
  1 13  2  0  0  0
  1 14  1  0  0  0
  2  1  1  0  0  0
  2  3  1  0  0  0
  2 15  1  0  0  0
  2 17  1  0  0  0
  3  4  1  0  0  0
  4  5  1  0  0  0
  4 16  1  0  0  0
  5  6  1  0  0  0
  5 12  1  0  0  0
  6  7  1  0  0  0
  6 17  1  0  0  0
  7  8  1  0  0  0
  7 18  1  0  0  0
  8  9  1  0  0  0
  8 19  1  0  0  0
  9 20  1  0  0  0
 10 11  1  0  0  0
 10 12  1  0  0  0
 10 21  2  0  0  0
 12 22  1  0  0  0
 14 28  1  0  0  0
 15 23  1  0  0  0
 16 24  1  0  0  0
 18 25  1  0  0  0
 19 26  1  0  0  0
 20 27  1  0  0  0
M  END
>  <CHROM.0>
-65.13757401,63.97531268,119.52521878,40.15046467,-122.09803734,63.48180308
-112.79371130,10.56604584

>  <CHROM.1>
-4.90715258,24.74811311,81.15683963,64.19206267,48.40909540,171.94034766
69.79996331,71.09441139,69.02849639,64.89511883,-53.30412954,-0.31690668
56.37021510,-8.24500684,-1.85282092,-0.52176252,0.95937926

>  <FORMUL>
      SIA    C11 H19 N1 O9

>  <HET>
 SIA  A 467      39

>  <HETNAM>
     SIA O-SIALIC ACID

>  <Name>
SIA.pdb

>  <RI>
1.2123e+07

>  <Rbt.Current_Directory>
/home/malgorzata/Desktop/rDOCK_IFD/Wyniki/12_neuraminidase/IFD

>  <Rbt.Executable>
rbdock ($Id: //depot/dev/client3/rdock/2013.1/src/exe/rbdock.cxx#4 $)

>  <Rbt.Library>
libRbt.so (2013.1, Build901 2013/11/27)

>  <Rbt.Parameter_File>
/home/malgorzata/Desktop/rDock_2013.1_src/data/scripts/dock.prm

>  <Rbt.Receptor>
cavity.prm

>  <SCORE>
-28.5314

>  <SCORE.INTER>
-4.76972

>  <SCORE.INTER.CONST>
1

>  <SCORE.INTER.POLAR>
-0.170268

>  <SCORE.INTER.REPUL>
0

>  <SCORE.INTER.ROT>
5

>  <SCORE.INTER.VDW>
-14.5908

>  <SCORE.INTER.norm>
-0.22713

>  <SCORE.INTRA>
-17.5014

>  <SCORE.INTRA.DIHEDRAL>
-19.62

>  <SCORE.INTRA.DIHEDRAL.0>
24.6845

>  <SCORE.INTRA.POLAR>
0.103767

>  <SCORE.INTRA.POLAR.0>
-0.967721

>  <SCORE.INTRA.REPUL>
0

>  <SCORE.INTRA.REPUL.0>
0

>  <SCORE.INTRA.VDW>
-8.04426

>  <SCORE.INTRA.VDW.0>
7.44847

>  <SCORE.INTRA.norm>
-0.833402

>  <SCORE.RESTR>
0

>  <SCORE.RESTR.CAVITY>
0

>  <SCORE.RESTR.norm>
0

>  <SCORE.SYSTEM>
-6.26025

>  <SCORE.SYSTEM.CONST>
0

>  <SCORE.SYSTEM.DIHEDRAL>
2.36661

>  <SCORE.SYSTEM.POLAR>
-2.23141

>  <SCORE.SYSTEM.VDW>
0.143229

>  <SCORE.SYSTEM.norm>
-0.298107

>  <SCORE.heavy>
21

>  <SCORE.norm>
-1.35864

$$$$
SIA.pdb
  rDOCK(R)          3D
libRbt.so/2013.1/901 2013/11/27
 28 28  0  0  0  0  0  0  0  0999 V2000
   -3.0157   56.8314   -4.5126 C   0  0  0  0  0  0
   -1.9380   57.9137   -4.6145 C   0  0  0  0  0  0
   -0.6770   57.8770   -5.4684 C   0  0  0  0  0  0
   -0.1464   59.2636   -5.7990 C   0  0  0  0  0  0
   -0.5840   60.3103   -4.7780 C   0  0  0  0  0  0
   -2.1136   60.3962   -4.7886 C   0  0  0  0  0  0
   -2.6362   61.3441   -3.6930 C   0  0  0  0  0  0
   -2.2720   62.8049   -3.9650 C   0  0  0  0  0  0
   -2.9503   63.4482   -5.1996 C   0  0  0  0  0  0
   -0.1628   62.2268   -6.3575 C   0  0  0  0  0  0
    0.6076   63.5303   -6.4865 C   0  0  0  0  0  0
    0.0138   61.5503   -5.2394 N   0  0  0  0  0  0
   -2.8999   55.9821   -5.4156 O   0  0  0  0  0  0
   -4.0201   56.6995   -3.7888 O   0  0  0  0  0  0
   -1.8892   57.9797   -3.1873 O   0  0  0  0  0  0
    1.2596   59.1881   -5.7606 O   0  0  0  0  0  0
   -2.7053   59.1166   -4.4817 O   0  0  0  0  0  0
   -4.0511   61.3017   -3.5977 O   0  0  0  0  0  0
   -2.7503   63.5004   -2.8358 O   0  0  0  0  0  0
   -4.3311   63.1238   -5.2492 O   0  0  0  0  0  0
   -0.8967   61.7750   -7.2380 O   0  0  0  0  0  0
    0.5854   61.9094   -4.5181 H   0  0  0  0  0  0
   -1.3090   58.7476   -3.0213 H   0  0  0  0  0  0
    1.5939   60.0526   -6.0728 H   0  0  0  0  0  0
   -3.9290   60.4981   -3.0465 H   0  0  0  0  0  0
   -2.4580   64.4103   -2.9837 H   0  0  0  0  0  0
   -4.6193   63.5330   -4.4101 H   0  0  0  0  0  0
   -4.6283   56.0058   -3.9532 H   0  0  0  0  0  0
  1 13  2  0  0  0
  1 14  1  0  0  0
  2  1  1  0  0  0
  2  3  1  0  0  0
  2 15  1  0  0  0
  2 17  1  0  0  0
  3  4  1  0  0  0
  4  5  1  0  0  0
  4 16  1  0  0  0
  5  6  1  0  0  0
  5 12  1  0  0  0
  6  7  1  0  0  0
  6 17  1  0  0  0
  7  8  1  0  0  0
  7 18  1  0  0  0
  8  9  1  0  0  0
  8 19  1  0  0  0
  9 20  1  0  0  0
 10 11  1  0  0  0
 10 12  1  0  0  0
 10 21  2  0  0  0
 12 22  1  0  0  0
 14 28  1  0  0  0
 15 23  1  0  0  0
 16 24  1  0  0  0
 18 25  1  0  0  0
 19 26  1  0  0  0
 20 27  1  0  0  0
M  END
>  <CHROM.0>
-179.09293657,-52.07511925,-75.53569995,-40.32085193,-124.27487201,53.80503439
122.27471183,-0.64450103

>  <CHROM.1>
172.20561658,-13.10779130,-172.22616459,173.68218250,62.05467152,67.92542606
66.81971528,82.33499190,44.51774209,175.88819753,61.50601220,-1.86033501
60.30556905,-4.84799078,1.71617756,-0.50913320,3.11215037

>  <FORMUL>
      SIA    C11 H19 N1 O9

>  <HET>
 SIA  A 467      39

>  <HETNAM>
     SIA O-SIALIC ACID

>  <Name>
SIA.pdb

>  <RI>
1.2123e+07

>  <Rbt.Current_Directory>
/home/malgorzata/Desktop/rDOCK_IFD/Wyniki/12_neuraminidase/IFD

>  <Rbt.Executable>
rbdock ($Id: //depot/dev/client3/rdock/2013.1/src/exe/rbdock.cxx#4 $)

>  <Rbt.Library>
libRbt.so (2013.1, Build901 2013/11/27)

>  <Rbt.Parameter_File>
/home/malgorzata/Desktop/rDock_2013.1_src/data/scripts/dock.prm

>  <Rbt.Receptor>
cavity.prm

>  <SCORE>
-36.8014

>  <SCORE.INTER>
-16.4468

>  <SCORE.INTER.CONST>
1

>  <SCORE.INTER.POLAR>
-4.94611

>  <SCORE.INTER.REPUL>
0.11374

>  <SCORE.INTER.ROT>
5

>  <SCORE.INTER.VDW>
-10.5988

>  <SCORE.INTER.norm>
-0.783183

>  <SCORE.INTRA>
-14.4465

>  <SCORE.INTRA.DIHEDRAL>
-18.4179

>  <SCORE.INTRA.DIHEDRAL.0>
24.6845

>  <SCORE.INTRA.POLAR>
0.950622

>  <SCORE.INTRA.POLAR.0>
-0.967721

>  <SCORE.INTRA.REPUL>
0

>  <SCORE.INTRA.REPUL.0>
0

>  <SCORE.INTRA.VDW>
-8.46963

>  <SCORE.INTRA.VDW.0>
7.44847

>  <SCORE.INTRA.norm>
-0.687927

>  <SCORE.RESTR>
0

>  <SCORE.RESTR.CAVITY>
0

>  <SCORE.RESTR.norm>
0

>  <SCORE.SYSTEM>
-5.90808

>  <SCORE.SYSTEM.CONST>
0

>  <SCORE.SYSTEM.DIHEDRAL>
2.31116

>  <SCORE.SYSTEM.POLAR>
-2.24756

>  <SCORE.SYSTEM.REPUL>
0.320734

>  <SCORE.SYSTEM.VDW>
-1.0256

>  <SCORE.SYSTEM.norm>
-0.281337

>  <SCORE.heavy>
21

>  <SCORE.norm>
-1.75245

$$$$
SIA.pdb
  rDOCK(R)          3D
libRbt.so/2013.1/901 2013/11/27
 28 28  0  0  0  0  0  0  0  0999 V2000
    1.5898   55.9359   -7.6393 C   0  0  0  0  0  0
    0.0727   56.1093   -7.7474 C   0  0  0  0  0  0
   -0.7980   57.0863   -6.9677 C   0  0  0  0  0  0
   -2.0970   57.4220   -7.6843 C   0  0  0  0  0  0
   -2.5199   56.3278   -8.6608 C   0  0  0  0  0  0
   -1.4356   56.1818   -9.7333 C   0  0  0  0  0  0
   -1.7334   55.0083  -10.6850 C   0  0  0  0  0  0
   -0.6665   54.8542  -11.7707 C   0  0  0  0  0  0
   -0.9338   53.7509  -12.8240 C   0  0  0  0  0  0
   -4.9493   56.2320   -9.3190 C   0  0  0  0  0  0
   -6.0550   57.0572   -9.9561 C   0  0  0  0  0  0
   -3.7647   56.8052   -9.2355 N   0  0  0  0  0  0
    2.0381   56.4540   -6.5997 O   0  0  0  0  0  0
    2.4501   55.4861   -8.4189 O   0  0  0  0  0  0
   -0.0831   54.6928   -7.6338 O   0  0  0  0  0  0
   -3.0975   57.5275   -6.6985 O   0  0  0  0  0  0
   -0.1609   55.8600   -9.1389 O   0  0  0  0  0  0
   -1.7721   53.7710   -9.9918 O   0  0  0  0  0  0
   -0.6905   56.0831  -12.4611 O   0  0  0  0  0  0
   -1.1042   52.4854  -12.2045 O   0  0  0  0  0  0
   -5.1009   55.0765   -8.9191 O   0  0  0  0  0  0
   -3.6335   57.7371   -9.5360 H   0  0  0  0  0  0
   -0.8677   54.5118   -8.1866 H   0  0  0  0  0  0
   -2.8027   58.2210   -6.0751 H   0  0  0  0  0  0
   -2.1971   53.4028  -10.7970 H   0  0  0  0  0  0
   -0.3486   56.7174  -11.8161 H   0  0  0  0  0  0
   -0.2026   52.3613  -11.8493 H   0  0  0  0  0  0
    2.1876   55.0617   -9.2120 H   0  0  0  0  0  0
  1 13  2  0  0  0
  1 14  1  0  0  0
  2  1  1  0  0  0
  2  3  1  0  0  0
  2 15  1  0  0  0
  2 17  1  0  0  0
  3  4  1  0  0  0
  4  5  1  0  0  0
  4 16  1  0  0  0
  5  6  1  0  0  0
  5 12  1  0  0  0
  6  7  1  0  0  0
  6 17  1  0  0  0
  7  8  1  0  0  0
  7 18  1  0  0  0
  8  9  1  0  0  0
  8 19  1  0  0  0
  9 20  1  0  0  0
 10 11  1  0  0  0
 10 12  1  0  0  0
 10 21  2  0  0  0
 12 22  1  0  0  0
 14 28  1  0  0  0
 15 23  1  0  0  0
 16 24  1  0  0  0
 18 25  1  0  0  0
 19 26  1  0  0  0
 20 27  1  0  0  0
M  END
>  <CHROM.0>
-60.78801088,67.06426683,-39.78606242,43.32505493,-150.56039747,-37.03717230
-91.19963078,8.61309468

>  <CHROM.1>
-8.46636846,16.58991750,-147.04868957,58.04818840,-126.37296125,179.52090002
-176.38684281,165.55713509,-56.87165236,68.01938153,-66.04277950,-1.44155884
55.68467697,-9.26782177,0.27501733,-0.19299410,1.03886741

>  <FORMUL>
      SIA    C11 H19 N1 O9

>  <HET>
 SIA  A 467      39

>  <HETNAM>
     SIA O-SIALIC ACID

>  <Name>
SIA.pdb

>  <RI>
1.2123e+07

>  <Rbt.Current_Directory>
/home/malgorzata/Desktop/rDOCK_IFD/Wyniki/12_neuraminidase/IFD

>  <Rbt.Executable>
rbdock ($Id: //depot/dev/client3/rdock/2013.1/src/exe/rbdock.cxx#4 $)

>  <Rbt.Library>
libRbt.so (2013.1, Build901 2013/11/27)

>  <Rbt.Parameter_File>
/home/malgorzata/Desktop/rDock_2013.1_src/data/scripts/dock.prm

>  <Rbt.Receptor>
cavity.prm

>  <SCORE>
-34.8258

>  <SCORE.INTER>
-12.9467

>  <SCORE.INTER.CONST>
1

>  <SCORE.INTER.POLAR>
-2.83774

>  <SCORE.INTER.REPUL>
0.107247

>  <SCORE.INTER.ROT>
5

>  <SCORE.INTER.VDW>
-14.2347

>  <SCORE.INTER.norm>
-0.616511

>  <SCORE.INTRA>
-16.4445

>  <SCORE.INTRA.DIHEDRAL>
-18.4442

>  <SCORE.INTRA.DIHEDRAL.0>
24.6845

>  <SCORE.INTRA.POLAR>
-0.227151

>  <SCORE.INTRA.POLAR.0>
-0.967721

>  <SCORE.INTRA.REPUL>
0

>  <SCORE.INTRA.REPUL.0>
0

>  <SCORE.INTRA.VDW>
-6.45006

>  <SCORE.INTRA.VDW.0>
7.44847

>  <SCORE.INTRA.norm>
-0.783069

>  <SCORE.RESTR>
0

>  <SCORE.RESTR.CAVITY>
0

>  <SCORE.RESTR.norm>
0

>  <SCORE.SYSTEM>
-5.43461

>  <SCORE.SYSTEM.CONST>
0

>  <SCORE.SYSTEM.DIHEDRAL>
2.3506

>  <SCORE.SYSTEM.POLAR>
-2.24006

>  <SCORE.SYSTEM.VDW>
1.0063

>  <SCORE.SYSTEM.norm>
-0.258791

>  <SCORE.heavy>
21

>  <SCORE.norm>
-1.65837

$$$$
SIA.pdb
  rDOCK(R)          3D
libRbt.so/2013.1/901 2013/11/27
 28 28  0  0  0  0  0  0  0  0999 V2000
    1.4879   56.5408   -6.8661 C   0  0  0  0  0  0
    0.5533   57.7506   -6.7876 C   0  0  0  0  0  0
    0.9542   59.2133   -6.6441 C   0  0  0  0  0  0
   -0.1044   60.1706   -7.1699 C   0  0  0  0  0  0
   -1.5000   59.5527   -7.1621 C   0  0  0  0  0  0
   -1.4992   58.3281   -8.0828 C   0  0  0  0  0  0
   -2.8427   57.5771   -8.0290 C   0  0  0  0  0  0
   -3.4679   57.4025   -9.4144 C   0  0  0  0  0  0
   -3.8281   58.7117  -10.1590 C   0  0  0  0  0  0
   -3.4188   61.1843   -7.1381 C   0  0  0  0  0  0
   -4.0705   62.2849   -7.9586 C   0  0  0  0  0  0
   -2.3694   60.5951   -7.6771 N   0  0  0  0  0  0
    2.6429   56.8734   -7.1909 O   0  0  0  0  0  0
    1.2968   55.3138   -6.7767 O   0  0  0  0  0  0
   -0.2190   57.0720   -5.7943 O   0  0  0  0  0  0
   -0.1224   61.2823   -6.3052 O   0  0  0  0  0  0
   -0.5186   57.3603   -7.6547 O   0  0  0  0  0  0
   -2.6892   56.2704   -7.4982 O   0  0  0  0  0  0
   -2.4621   56.7716  -10.1747 O   0  0  0  0  0  0
   -4.3086   58.4388  -11.4663 O   0  0  0  0  0  0
   -3.8353   60.8105   -6.0404 O   0  0  0  0  0  0
   -2.0144   60.8966   -8.5482 H   0  0  0  0  0  0
    0.3666   57.0840   -5.0128 H   0  0  0  0  0  0
    0.7273   61.7491   -6.4334 H   0  0  0  0  0  0
   -2.1657   56.6893   -6.7806 H   0  0  0  0  0  0
   -2.8851   56.6106  -11.0293 H   0  0  0  0  0  0
   -5.1355   57.9723  -11.2359 H   0  0  0  0  0  0
    0.4695   54.9888   -6.4801 H   0  0  0  0  0  0
  1 13  2  0  0  0
  1 14  1  0  0  0
  2  1  1  0  0  0
  2  3  1  0  0  0
  2 15  1  0  0  0
  2 17  1  0  0  0
  3  4  1  0  0  0
  4  5  1  0  0  0
  4 16  1  0  0  0
  5  6  1  0  0  0
  5 12  1  0  0  0
  6  7  1  0  0  0
  6 17  1  0  0  0
  7  8  1  0  0  0
  7 18  1  0  0  0
  8  9  1  0  0  0
  8 19  1  0  0  0
  9 20  1  0  0  0
 10 11  1  0  0  0
 10 12  1  0  0  0
 10 21  2  0  0  0
 12 22  1  0  0  0
 14 28  1  0  0  0
 15 23  1  0  0  0
 16 24  1  0  0  0
 18 25  1  0  0  0
 19 26  1  0  0  0
 20 27  1  0  0  0
M  END
>  <CHROM.0>
67.87451032,62.48402233,102.97068159,41.53313550,-170.41733736,-84.03213061
117.99596390,-125.95554889

>  <CHROM.1>
-11.06902225,-19.66594916,71.24959840,68.04001720,-121.45540029,125.15208750
-61.98899263,47.69021414,175.76266823,176.28188040,65.76484875,-1.44845982
58.50453093,-7.72735752,0.29604505,0.57226949,-2.66972299

>  <FORMUL>
      SIA    C11 H19 N1 O9

>  <HET>
 SIA  A 467      39

>  <HETNAM>
     SIA O-SIALIC ACID

>  <Name>
SIA.pdb

>  <RI>
1.2123e+07

>  <Rbt.Current_Directory>
/home/malgorzata/Desktop/rDOCK_IFD/Wyniki/12_neuraminidase/IFD

>  <Rbt.Executable>
rbdock ($Id: //depot/dev/client3/rdock/2013.1/src/exe/rbdock.cxx#4 $)

>  <Rbt.Library>
libRbt.so (2013.1, Build901 2013/11/27)

>  <Rbt.Parameter_File>
/home/malgorzata/Desktop/rDock_2013.1_src/data/scripts/dock.prm

>  <Rbt.Receptor>
cavity.prm

>  <SCORE>
-24.4806

>  <SCORE.INTER>
-4.86331

>  <SCORE.INTER.CONST>
1

>  <SCORE.INTER.POLAR>
-2.13902

>  <SCORE.INTER.REPUL>
0.181784

>  <SCORE.INTER.ROT>
5

>  <SCORE.INTER.VDW>
-8.89955

>  <SCORE.INTER.norm>
-0.231586

>  <SCORE.INTRA>
-13.2589

>  <SCORE.INTRA.DIHEDRAL>
-15.0315

>  <SCORE.INTRA.DIHEDRAL.0>
24.6845

>  <SCORE.INTRA.POLAR>
0.0882351

>  <SCORE.INTRA.POLAR.0>
-0.967721

>  <SCORE.INTRA.REPUL>
0

>  <SCORE.INTRA.REPUL.0>
0

>  <SCORE.INTRA.VDW>
-6.04312

>  <SCORE.INTRA.VDW.0>
7.44847

>  <SCORE.INTRA.norm>
-0.631375

>  <SCORE.RESTR>
0

>  <SCORE.RESTR.CAVITY>
0

>  <SCORE.RESTR.norm>
0

>  <SCORE.SYSTEM>
-6.35841

>  <SCORE.SYSTEM.CONST>
0

>  <SCORE.SYSTEM.DIHEDRAL>
5.47363

>  <SCORE.SYSTEM.POLAR>
-2.22566

>  <SCORE.SYSTEM.VDW>
-1.52799

>  <SCORE.SYSTEM.norm>
-0.302781

>  <SCORE.heavy>
21

>  <SCORE.norm>
-1.16574

$$$$
