SIA.pdb
  rDOCK(R)          3D
libRbt.so/2013.1/901 2013/11/27
 28 28  0  0  0  0  0  0  0  0999 V2000
   -2.4193   54.3573  -11.9459 C   0  0  0  0  0  0
   -2.2301   54.6437  -10.4540 C   0  0  0  0  0  0
   -1.4785   53.7878   -9.4425 C   0  0  0  0  0  0
   -0.9813   54.5857   -8.2468 C   0  0  0  0  0  0
   -1.8025   55.8505   -8.0118 C   0  0  0  0  0  0
   -1.6758   56.7533   -9.2431 C   0  0  0  0  0  0
   -2.5798   57.9952   -9.1315 C   0  0  0  0  0  0
   -2.5935   58.8227  -10.4182 C   0  0  0  0  0  0
   -3.7829   58.5590  -11.3743 C   0  0  0  0  0  0
   -1.6917   57.3457   -5.9878 C   0  0  0  0  0  0
   -0.7821   57.7462   -4.8382 C   0  0  0  0  0  0
   -1.2028   56.4699   -6.8438 N   0  0  0  0  0  0
   -1.8001   55.1746  -12.6522 O   0  0  0  0  0  0
   -3.1380   53.5561  -12.5716 O   0  0  0  0  0  0
   -3.6315   54.9024  -10.3403 O   0  0  0  0  0  0
   -1.1255   53.7634   -7.1123 O   0  0  0  0  0  0
   -2.1296   56.0728  -10.4317 O   0  0  0  0  0  0
   -3.9291   57.6375   -8.8783 O   0  0  0  0  0  0
   -2.7216   60.1550   -9.9756 O   0  0  0  0  0  0
   -3.5693   57.3843  -12.1415 O   0  0  0  0  0  0
   -2.8178   57.8135   -6.1650 O   0  0  0  0  0  0
   -0.3087   56.0737   -6.7039 H   0  0  0  0  0  0
   -3.7409   55.1142   -9.3932 H   0  0  0  0  0  0
   -2.0860   53.6813   -6.9477 H   0  0  0  0  0  0
   -3.6751   57.5910   -7.9307 H   0  0  0  0  0  0
   -1.9025   60.3162   -9.4872 H   0  0  0  0  0  0
   -3.4436   56.7426  -11.4156 H   0  0  0  0  0  0
   -3.1236   53.5468  -13.5085 H   0  0  0  0  0  0
  1 13  2  0  0  0
  1 14  1  0  0  0
  2  1  1  0  0  0
  2  3  1  0  0  0
  2 15  1  0  0  0
  2 17  1  0  0  0
  3  4  1  0  0  0
  4  5  1  0  0  0
  4 16  1  0  0  0
  5  6  1  0  0  0
  5 12  1  0  0  0
  6  7  1  0  0  0
  6 17  1  0  0  0
  7  8  1  0  0  0
  7 18  1  0  0  0
  8  9  1  0  0  0
  8 19  1  0  0  0
  9 20  1  0  0  0
 10 11  1  0  0  0
 10 12  1  0  0  0
 10 21  2  0  0  0
 12 22  1  0  0  0
 14 28  1  0  0  0
 15 23  1  0  0  0
 16 24  1  0  0  0
 18 25  1  0  0  0
 19 26  1  0  0  0
 20 27  1  0  0  0
M  END
>  <CHROM.0>
176.71095083,177.06225601,65.06310051,-164.55950390,69.54038357,-157.57728008
128.64392603,-80.37674155,-157.89826900

>  <CHROM.1>
178.61125266,-112.00156173,179.50839518,-69.79816452,-158.85358644,-173.23470822
97.14329032,83.98533593,-79.71138397,64.73492482,56.85720309,-2.32865259
56.35709490,-9.37110338,-2.13889112,-1.20234962,0.69523666

>  <FORMUL>
      SIA    C11 H19 N1 O9

>  <HET>
 SIA  A 467      39

>  <HETNAM>
     SIA O-SIALIC ACID

>  <Name>
SIA.pdb

>  <RI>
0

>  <Rbt.Current_Directory>
/home/malgorzata/Desktop/rDOCK_IFD/Wyniki/12_neuraminidase/IFD

>  <Rbt.Executable>
rbdock ($Id: //depot/dev/client3/rdock/2013.1/src/exe/rbdock.cxx#4 $)

>  <Rbt.Library>
libRbt.so (2013.1, Build901 2013/11/27)

>  <Rbt.Parameter_File>
/home/malgorzata/Desktop/rDock_2013.1_src/data/scripts/dock.prm

>  <Rbt.Receptor>
cavity.prm

>  <SCORE>
-40.3716

>  <SCORE.INTER>
-8.86704

>  <SCORE.INTER.CONST>
1

>  <SCORE.INTER.POLAR>
-1.39253

>  <SCORE.INTER.REPUL>
3.5048e-06

>  <SCORE.INTER.ROT>
5

>  <SCORE.INTER.VDW>
-14.5324

>  <SCORE.INTER.norm>
-0.42224

>  <SCORE.INTRA>
-18.4001

>  <SCORE.INTRA.DIHEDRAL>
-13.4526

>  <SCORE.INTRA.DIHEDRAL.0>
24.6845

>  <SCORE.INTRA.POLAR>
-1.38256

>  <SCORE.INTRA.POLAR.0>
-0.967721

>  <SCORE.INTRA.REPUL>
0

>  <SCORE.INTRA.REPUL.0>
0

>  <SCORE.INTRA.VDW>
-6.97313

>  <SCORE.INTRA.VDW.0>
7.44847

>  <SCORE.INTRA.norm>
-0.876197

>  <SCORE.RESTR>
0

>  <SCORE.RESTR.CAVITY>
0

>  <SCORE.RESTR.norm>
0

>  <SCORE.SYSTEM>
-13.1044

>  <SCORE.SYSTEM.CONST>
0

>  <SCORE.SYSTEM.DIHEDRAL>
2.94714

>  <SCORE.SYSTEM.POLAR>
-3.58446

>  <SCORE.SYSTEM.REPUL>
0.0847934

>  <SCORE.SYSTEM.VDW>
-2.81484

>  <SCORE.SYSTEM.norm>
-0.624021

>  <SCORE.heavy>
21

>  <SCORE.norm>
-1.92246

$$$$
SIA.pdb
  rDOCK(R)          3D
libRbt.so/2013.1/901 2013/11/27
 28 28  0  0  0  0  0  0  0  0999 V2000
   -2.3913   53.9509  -12.1278 C   0  0  0  0  0  0
   -2.2613   54.2512  -10.6324 C   0  0  0  0  0  0
   -1.5283   53.4183   -9.5886 C   0  0  0  0  0  0
   -1.0907   54.2345   -8.3820 C   0  0  0  0  0  0
   -1.9462   55.4832   -8.1857 C   0  0  0  0  0  0
   -1.7948   56.3802   -9.4184 C   0  0  0  0  0  0
   -2.7280   57.6033   -9.3481 C   0  0  0  0  0  0
   -2.6343   58.4796  -10.5987 C   0  0  0  0  0  0
   -3.6555   59.6406  -10.6839 C   0  0  0  0  0  0
   -0.4561   57.0335   -6.8738 C   0  0  0  0  0  0
   -0.1711   57.5166   -5.4614 C   0  0  0  0  0  0
   -1.4014   56.1230   -7.0018 N   0  0  0  0  0  0
   -2.1158   52.7639  -12.3832 O   0  0  0  0  0  0
   -2.6072   54.6689  -13.1218 O   0  0  0  0  0  0
   -3.6709   54.4809  -10.5703 O   0  0  0  0  0  0
   -1.2579   53.4170   -7.2473 O   0  0  0  0  0  0
   -2.1917   55.6823  -10.6172 O   0  0  0  0  0  0
   -4.0885   57.2162   -9.2389 O   0  0  0  0  0  0
   -1.3579   59.0725  -10.5151 O   0  0  0  0  0  0
   -3.4508   60.5774   -9.6375 O   0  0  0  0  0  0
    0.1604   57.4211   -7.8676 O   0  0  0  0  0  0
   -1.9155   55.8164   -6.2159 H   0  0  0  0  0  0
   -4.0412   53.5774  -10.5482 H   0  0  0  0  0  0
   -0.9564   53.9415   -6.4789 H   0  0  0  0  0  0
   -3.8964   56.5638   -9.9474 H   0  0  0  0  0  0
   -0.7500   58.3324  -10.6486 H   0  0  0  0  0  0
   -4.1557   61.2168   -9.8584 H   0  0  0  0  0  0
   -2.7918   55.5808  -13.0100 H   0  0  0  0  0  0
  1 13  2  0  0  0
  1 14  1  0  0  0
  2  1  1  0  0  0
  2  3  1  0  0  0
  2 15  1  0  0  0
  2 17  1  0  0  0
  3  4  1  0  0  0
  4  5  1  0  0  0
  4 16  1  0  0  0
  5  6  1  0  0  0
  5 12  1  0  0  0
  6  7  1  0  0  0
  6 17  1  0  0  0
  7  8  1  0  0  0
  7 18  1  0  0  0
  8  9  1  0  0  0
  8 19  1  0  0  0
  9 20  1  0  0  0
 10 11  1  0  0  0
 10 12  1  0  0  0
 10 21  2  0  0  0
 12 22  1  0  0  0
 14 28  1  0  0  0
 15 23  1  0  0  0
 16 24  1  0  0  0
 18 25  1  0  0  0
 19 26  1  0  0  0
 20 27  1  0  0  0
M  END
>  <CHROM.0>
-56.74215671,-179.45996735,70.73881480,-74.20185184,-55.20194236,89.03258067
130.60417628,-144.66622324,-169.13460281

>  <CHROM.1>
-4.78957077,16.92213523,78.79216767,178.79495800,90.71291568,-177.55397608
173.25018237,-44.99454603,63.76609106,68.40007844,179.32608744,-2.05940355
56.18891279,-9.52181971,1.74447389,1.10980091,-2.77457909

>  <FORMUL>
      SIA    C11 H19 N1 O9

>  <HET>
 SIA  A 467      39

>  <HETNAM>
     SIA O-SIALIC ACID

>  <Name>
SIA.pdb

>  <RI>
0

>  <Rbt.Current_Directory>
/home/malgorzata/Desktop/rDOCK_IFD/Wyniki/12_neuraminidase/IFD

>  <Rbt.Executable>
rbdock ($Id: //depot/dev/client3/rdock/2013.1/src/exe/rbdock.cxx#4 $)

>  <Rbt.Library>
libRbt.so (2013.1, Build901 2013/11/27)

>  <Rbt.Parameter_File>
/home/malgorzata/Desktop/rDock_2013.1_src/data/scripts/dock.prm

>  <Rbt.Receptor>
cavity.prm

>  <SCORE>
-37.7977

>  <SCORE.INTER>
-9.38078

>  <SCORE.INTER.CONST>
1

>  <SCORE.INTER.POLAR>
-1.2451

>  <SCORE.INTER.REPUL>
0.00141244

>  <SCORE.INTER.ROT>
5

>  <SCORE.INTER.VDW>
-15.5545

>  <SCORE.INTER.norm>
-0.446704

>  <SCORE.INTRA>
-16.8622

>  <SCORE.INTRA.DIHEDRAL>
-20.1668

>  <SCORE.INTRA.DIHEDRAL.0>
24.6845

>  <SCORE.INTRA.POLAR>
-0.220496

>  <SCORE.INTRA.POLAR.0>
-0.967721

>  <SCORE.INTRA.REPUL>
0

>  <SCORE.INTRA.REPUL.0>
0

>  <SCORE.INTRA.VDW>
-6.02912

>  <SCORE.INTRA.VDW.0>
7.44847

>  <SCORE.INTRA.norm>
-0.802963

>  <SCORE.RESTR>
0

>  <SCORE.RESTR.CAVITY>
0

>  <SCORE.RESTR.norm>
0

>  <SCORE.SYSTEM>
-11.5547

>  <SCORE.SYSTEM.CONST>
0

>  <SCORE.SYSTEM.DIHEDRAL>
2.76771

>  <SCORE.SYSTEM.POLAR>
-3.20706

>  <SCORE.SYSTEM.REPUL>
0.0940808

>  <SCORE.SYSTEM.VDW>
-2.50495

>  <SCORE.SYSTEM.norm>
-0.550224

>  <SCORE.heavy>
21

>  <SCORE.norm>
-1.79989

$$$$
SIA.pdb
  rDOCK(R)          3D
libRbt.so/2013.1/901 2013/11/27
 28 28  0  0  0  0  0  0  0  0999 V2000
    2.4907   59.7596   -5.1970 C   0  0  0  0  0  0
    1.0007   59.9628   -4.9106 C   0  0  0  0  0  0
    0.3763   60.9986   -3.9844 C   0  0  0  0  0  0
   -1.0628   61.3276   -4.3505 C   0  0  0  0  0  0
   -1.7390   60.1952   -5.1185 C   0  0  0  0  0  0
   -0.9786   59.9691   -6.4292 C   0  0  0  0  0  0
   -1.5283   58.7556   -7.2020 C   0  0  0  0  0  0
   -0.7893   58.5221   -8.5210 C   0  0  0  0  0  0
   -1.3057   57.3424   -9.3811 C   0  0  0  0  0  0
   -4.2504   60.2351   -4.9285 C   0  0  0  0  0  0
   -5.4764   61.0180   -5.3683 C   0  0  0  0  0  0
   -3.0871   60.6716   -5.3702 N   0  0  0  0  0  0
    3.1888   60.6200   -4.6291 O   0  0  0  0  0  0
    3.1122   58.9895   -5.9526 O   0  0  0  0  0  0
    0.8676   58.5580   -4.6814 O   0  0  0  0  0  0
   -1.7658   61.5070   -3.1431 O   0  0  0  0  0  0
    0.4050   59.6482   -6.1752 O   0  0  0  0  0  0
   -1.3922   57.5565   -6.4561 O   0  0  0  0  0  0
   -1.0246   59.6957   -9.2660 O   0  0  0  0  0  0
   -2.6713   57.5212   -9.7240 O   0  0  0  0  0  0
   -4.2992   59.2244   -4.2254 O   0  0  0  0  0  0
   -3.0320   61.4906   -5.9198 H   0  0  0  0  0  0
   -0.0867   58.4014   -4.8179 H   0  0  0  0  0  0
   -1.4558   62.3530   -2.7630 H   0  0  0  0  0  0
   -2.1276   57.8919   -5.8982 H   0  0  0  0  0  0
   -0.4712   59.5859  -10.0514 H   0  0  0  0  0  0
   -2.5920   58.3261  -10.2720 H   0  0  0  0  0  0
    2.6446   58.3717   -6.4795 H   0  0  0  0  0  0
  1 13  2  0  0  0
  1 14  1  0  0  0
  2  1  1  0  0  0
  2  3  1  0  0  0
  2 15  1  0  0  0
  2 17  1  0  0  0
  3  4  1  0  0  0
  4  5  1  0  0  0
  4 16  1  0  0  0
  5  6  1  0  0  0
  5 12  1  0  0  0
  6  7  1  0  0  0
  6 17  1  0  0  0
  7  8  1  0  0  0
  7 18  1  0  0  0
  8  9  1  0  0  0
  8 19  1  0  0  0
  9 20  1  0  0  0
 10 11  1  0  0  0
 10 12  1  0  0  0
 10 21  2  0  0  0
 12 22  1  0  0  0
 14 28  1  0  0  0
 15 23  1  0  0  0
 16 24  1  0  0  0
 18 25  1  0  0  0
 19 26  1  0  0  0
 20 27  1  0  0  0
M  END
>  <CHROM.0>
64.43374902,-176.89143905,64.11041903,36.66546039,-57.19590765,-149.99910276
132.53260905,-87.80500469,-165.31080038

>  <CHROM.1>
-0.80995003,-4.08125139,-158.42835940,71.54925904,-114.29240598,179.45634316
-178.38124706,73.47168792,59.11603930,173.55122115,64.19333887,-0.94274519
59.59399404,-5.98260190,-0.26508997,0.06665655,-2.08216824

>  <FORMUL>
      SIA    C11 H19 N1 O9

>  <HET>
 SIA  A 467      39

>  <HETNAM>
     SIA O-SIALIC ACID

>  <Name>
SIA.pdb

>  <RI>
0

>  <Rbt.Current_Directory>
/home/malgorzata/Desktop/rDOCK_IFD/Wyniki/12_neuraminidase/IFD

>  <Rbt.Executable>
rbdock ($Id: //depot/dev/client3/rdock/2013.1/src/exe/rbdock.cxx#4 $)

>  <Rbt.Library>
libRbt.so (2013.1, Build901 2013/11/27)

>  <Rbt.Parameter_File>
/home/malgorzata/Desktop/rDock_2013.1_src/data/scripts/dock.prm

>  <Rbt.Receptor>
cavity.prm

>  <SCORE>
-33.3351

>  <SCORE.INTER>
-7.01729

>  <SCORE.INTER.CONST>
1

>  <SCORE.INTER.POLAR>
-2.08674

>  <SCORE.INTER.REPUL>
0.0382061

>  <SCORE.INTER.ROT>
5

>  <SCORE.INTER.VDW>
-10.5134

>  <SCORE.INTER.norm>
-0.334157

>  <SCORE.INTRA>
-15.7294

>  <SCORE.INTRA.DIHEDRAL>
-20.1713

>  <SCORE.INTRA.DIHEDRAL.0>
24.6845

>  <SCORE.INTRA.POLAR>
0.813291

>  <SCORE.INTRA.POLAR.0>
-0.967721

>  <SCORE.INTRA.REPUL>
0

>  <SCORE.INTRA.REPUL.0>
0

>  <SCORE.INTRA.VDW>
-8.40892

>  <SCORE.INTRA.VDW.0>
7.44847

>  <SCORE.INTRA.norm>
-0.749019

>  <SCORE.RESTR>
0

>  <SCORE.RESTR.CAVITY>
0

>  <SCORE.RESTR.norm>
0

>  <SCORE.SYSTEM>
-10.5884

>  <SCORE.SYSTEM.CONST>
0

>  <SCORE.SYSTEM.DIHEDRAL>
2.58287

>  <SCORE.SYSTEM.POLAR>
-3.20922

>  <SCORE.SYSTEM.REPUL>
0.447069

>  <SCORE.SYSTEM.VDW>
-3.2038

>  <SCORE.SYSTEM.norm>
-0.504208

>  <SCORE.heavy>
21

>  <SCORE.norm>
-1.58738

$$$$
SIA.pdb
  rDOCK(R)          3D
libRbt.so/2013.1/901 2013/11/27
 28 28  0  0  0  0  0  0  0  0999 V2000
   -4.7050   57.8181  -11.5932 C   0  0  0  0  0  0
   -4.2113   58.4391  -10.2840 C   0  0  0  0  0  0
   -4.8559   59.5808   -9.5085 C   0  0  0  0  0  0
   -4.4937   59.5705   -8.0313 C   0  0  0  0  0  0
   -3.1735   58.8531   -7.7631 C   0  0  0  0  0  0
   -3.3099   57.3930   -8.2063 C   0  0  0  0  0  0
   -1.9749   56.6353   -8.0821 C   0  0  0  0  0  0
   -2.1162   55.1487   -8.4149 C   0  0  0  0  0  0
   -1.7819   54.7519   -9.8741 C   0  0  0  0  0  0
   -3.5935   58.3288   -5.3355 C   0  0  0  0  0  0
   -3.0981   58.6467   -3.9344 C   0  0  0  0  0  0
   -2.9846   58.9495   -6.3269 N   0  0  0  0  0  0
   -5.5711   58.5265  -12.1393 O   0  0  0  0  0  0
   -4.4934   56.7224  -12.1454 O   0  0  0  0  0  0
   -2.9004   58.5443  -10.8446 O   0  0  0  0  0  0
   -4.3411   60.9131   -7.6337 O   0  0  0  0  0  0
   -3.6535   57.3074   -9.6050 O   0  0  0  0  0  0
   -0.9987   57.1481   -8.9747 O   0  0  0  0  0  0
   -1.1588   54.5148   -7.5969 O   0  0  0  0  0  0
   -2.9397   54.8011  -10.6935 O   0  0  0  0  0  0
   -4.5300   57.5645   -5.5737 O   0  0  0  0  0  0
   -2.2209   59.5512   -6.1514 H   0  0  0  0  0  0
   -2.3184   58.4292  -10.0688 H   0  0  0  0  0  0
   -5.2262   61.3246   -7.6955 H   0  0  0  0  0  0
   -0.3517   56.5886   -8.4922 H   0  0  0  0  0  0
   -1.4836   54.6687   -6.6990 H   0  0  0  0  0  0
   -3.1411   55.7546  -10.6246 H   0  0  0  0  0  0
   -4.9284   56.5104  -12.9478 H   0  0  0  0  0  0
  1 13  2  0  0  0
  1 14  1  0  0  0
  2  1  1  0  0  0
  2  3  1  0  0  0
  2 15  1  0  0  0
  2 17  1  0  0  0
  3  4  1  0  0  0
  4  5  1  0  0  0
  4 16  1  0  0  0
  5  6  1  0  0  0
  5 12  1  0  0  0
  6  7  1  0  0  0
  6 17  1  0  0  0
  7  8  1  0  0  0
  7 18  1  0  0  0
  8  9  1  0  0  0
  8 19  1  0  0  0
  9 20  1  0  0  0
 10 11  1  0  0  0
 10 12  1  0  0  0
 10 21  2  0  0  0
 12 22  1  0  0  0
 14 28  1  0  0  0
 15 23  1  0  0  0
 16 24  1  0  0  0
 18 25  1  0  0  0
 19 26  1  0  0  0
 20 27  1  0  0  0
M  END
>  <CHROM.0>
63.43159024,64.52024279,174.10688442,-168.10409412,71.93477667,-128.10410918
129.84495845,-119.14763744,-161.75353273

>  <CHROM.1>
177.37984149,13.92893832,-147.99303927,66.63125861,73.14285540,175.48653460
94.96043444,169.90449054,-90.77886798,65.85127289,62.94341838,-3.35339389
57.60202086,-8.73071438,1.69867190,0.96649807,-1.97199023

>  <FORMUL>
      SIA    C11 H19 N1 O9

>  <HET>
 SIA  A 467      39

>  <HETNAM>
     SIA O-SIALIC ACID

>  <Name>
SIA.pdb

>  <RI>
0

>  <Rbt.Current_Directory>
/home/malgorzata/Desktop/rDOCK_IFD/Wyniki/12_neuraminidase/IFD

>  <Rbt.Executable>
rbdock ($Id: //depot/dev/client3/rdock/2013.1/src/exe/rbdock.cxx#4 $)

>  <Rbt.Library>
libRbt.so (2013.1, Build901 2013/11/27)

>  <Rbt.Parameter_File>
/home/malgorzata/Desktop/rDock_2013.1_src/data/scripts/dock.prm

>  <Rbt.Receptor>
cavity.prm

>  <SCORE>
-36.4961

>  <SCORE.INTER>
-6.60189

>  <SCORE.INTER.CONST>
1

>  <SCORE.INTER.POLAR>
-1.72516

>  <SCORE.INTER.REPUL>
0.0889247

>  <SCORE.INTER.ROT>
5

>  <SCORE.INTER.VDW>
-11.581

>  <SCORE.INTER.norm>
-0.314376

>  <SCORE.INTRA>
-18.8619

>  <SCORE.INTRA.DIHEDRAL>
-13.2807

>  <SCORE.INTRA.DIHEDRAL.0>
24.6845

>  <SCORE.INTRA.POLAR>
-1.26498

>  <SCORE.INTRA.POLAR.0>
-0.967721

>  <SCORE.INTRA.REPUL>
0

>  <SCORE.INTRA.REPUL.0>
0

>  <SCORE.INTRA.VDW>
-7.92065

>  <SCORE.INTRA.VDW.0>
7.44847

>  <SCORE.INTRA.norm>
-0.898187

>  <SCORE.RESTR>
0

>  <SCORE.RESTR.CAVITY>
0

>  <SCORE.RESTR.norm>
0

>  <SCORE.SYSTEM>
-11.0323

>  <SCORE.SYSTEM.CONST>
0

>  <SCORE.SYSTEM.DIHEDRAL>
2.82617

>  <SCORE.SYSTEM.POLAR>
-2.88723

>  <SCORE.SYSTEM.REPUL>
0.114205

>  <SCORE.SYSTEM.VDW>
-3.19984

>  <SCORE.SYSTEM.norm>
-0.525349

>  <SCORE.heavy>
21

>  <SCORE.norm>
-1.73791

$$$$
SIA.pdb
  rDOCK(R)          3D
libRbt.so/2013.1/901 2013/11/27
 28 28  0  0  0  0  0  0  0  0999 V2000
   -0.9356   60.4009   -3.6457 C   0  0  0  0  0  0
   -1.4510   59.2293   -4.4855 C   0  0  0  0  0  0
   -2.8854   58.9822   -4.9350 C   0  0  0  0  0  0
   -2.9730   58.1178   -6.1833 C   0  0  0  0  0  0
   -1.7452   57.2286   -6.3602 C   0  0  0  0  0  0
   -0.5104   58.1225   -6.5138 C   0  0  0  0  0  0
    0.7863   57.2936   -6.5715 C   0  0  0  0  0  0
    1.9978   58.1357   -6.9763 C   0  0  0  0  0  0
    3.3562   57.3925   -6.9971 C   0  0  0  0  0  0
   -1.7919   56.7881   -8.8398 C   0  0  0  0  0  0
   -2.1471   55.7237   -9.8645 C   0  0  0  0  0  0
   -2.0034   56.4779   -7.5757 N   0  0  0  0  0  0
   -1.8469   60.9208   -2.9753 O   0  0  0  0  0  0
    0.1623   60.9851   -3.5877 O   0  0  0  0  0  0
   -0.7567   58.3244   -3.6237 O   0  0  0  0  0  0
   -4.0925   57.2774   -6.0265 O   0  0  0  0  0  0
   -0.3481   58.9814   -5.3659 O   0  0  0  0  0  0
    1.1021   56.7301   -5.3084 O   0  0  0  0  0  0
    1.7288   58.5184   -8.3062 O   0  0  0  0  0  0
    4.4035   58.2564   -7.4109 O   0  0  0  0  0  0
   -1.3584   57.9035   -9.1331 O   0  0  0  0  0  0
   -2.3338   55.5812   -7.3253 H   0  0  0  0  0  0
   -0.7803   57.4839   -4.1207 H   0  0  0  0  0  0
   -4.1321   56.7138   -6.8247 H   0  0  0  0  0  0
    0.3484   56.1191   -5.4607 H   0  0  0  0  0  0
    0.9807   59.1259   -8.2252 H   0  0  0  0  0  0
    5.1504   57.6276   -7.3736 H   0  0  0  0  0  0
    0.8888   60.6678   -4.0874 H   0  0  0  0  0  0
  1 13  2  0  0  0
  1 14  1  0  0  0
  2  1  1  0  0  0
  2  3  1  0  0  0
  2 15  1  0  0  0
  2 17  1  0  0  0
  3  4  1  0  0  0
  4  5  1  0  0  0
  4 16  1  0  0  0
  5  6  1  0  0  0
  5 12  1  0  0  0
  6  7  1  0  0  0
  6 17  1  0  0  0
  7  8  1  0  0  0
  7 18  1  0  0  0
  8  9  1  0  0  0
  8 19  1  0  0  0
  9 20  1  0  0  0
 10 11  1  0  0  0
 10 12  1  0  0  0
 10 21  2  0  0  0
 12 22  1  0  0  0
 14 28  1  0  0  0
 15 23  1  0  0  0
 16 24  1  0  0  0
 18 25  1  0  0  0
 19 26  1  0  0  0
 20 27  1  0  0  0
M  END
>  <CHROM.0>
-178.24211467,-62.12947315,174.47332696,-174.03451400,-56.02855951,-67.58464758
134.25884745,-58.73314015,-167.07114028

>  <CHROM.1>
-4.95934075,22.55905440,-166.74044718,-178.95719048,85.03546641,169.62711150
177.36284617,72.25579955,178.80024917,68.27139448,-179.31418158,-0.49056849
58.18128956,-6.21343567,-2.17589706,-0.10211803,-2.15375603

>  <FORMUL>
      SIA    C11 H19 N1 O9

>  <HET>
 SIA  A 467      39

>  <HETNAM>
     SIA O-SIALIC ACID

>  <Name>
SIA.pdb

>  <RI>
0

>  <Rbt.Current_Directory>
/home/malgorzata/Desktop/rDOCK_IFD/Wyniki/12_neuraminidase/IFD

>  <Rbt.Executable>
rbdock ($Id: //depot/dev/client3/rdock/2013.1/src/exe/rbdock.cxx#4 $)

>  <Rbt.Library>
libRbt.so (2013.1, Build901 2013/11/27)

>  <Rbt.Parameter_File>
/home/malgorzata/Desktop/rDock_2013.1_src/data/scripts/dock.prm

>  <Rbt.Receptor>
cavity.prm

>  <SCORE>
-43.0477

>  <SCORE.INTER>
-16.1588

>  <SCORE.INTER.CONST>
1

>  <SCORE.INTER.POLAR>
-3.13631

>  <SCORE.INTER.REPUL>
0

>  <SCORE.INTER.ROT>
5

>  <SCORE.INTER.VDW>
-15.8954

>  <SCORE.INTER.norm>
-0.769467

>  <SCORE.INTRA>
-15.7099

>  <SCORE.INTRA.DIHEDRAL>
-20.3576

>  <SCORE.INTRA.DIHEDRAL.0>
24.6845

>  <SCORE.INTRA.POLAR>
0.94115

>  <SCORE.INTRA.POLAR.0>
-0.967721

>  <SCORE.INTRA.REPUL>
0

>  <SCORE.INTRA.REPUL.0>
0

>  <SCORE.INTRA.VDW>
-8.73108

>  <SCORE.INTRA.VDW.0>
7.44847

>  <SCORE.INTRA.norm>
-0.748092

>  <SCORE.RESTR>
0

>  <SCORE.RESTR.CAVITY>
0

>  <SCORE.RESTR.norm>
0

>  <SCORE.SYSTEM>
-11.179

>  <SCORE.SYSTEM.CONST>
0

>  <SCORE.SYSTEM.DIHEDRAL>
2.44651

>  <SCORE.SYSTEM.POLAR>
-2.76093

>  <SCORE.SYSTEM.REPUL>
0.0590145

>  <SCORE.SYSTEM.VDW>
-3.31013

>  <SCORE.SYSTEM.norm>
-0.532332

>  <SCORE.heavy>
21

>  <SCORE.norm>
-2.04989

$$$$
SIA.pdb
  rDOCK(R)          3D
libRbt.so/2013.1/901 2013/11/27
 28 28  0  0  0  0  0  0  0  0999 V2000
   -0.9129   60.3565   -3.5965 C   0  0  0  0  0  0
   -1.4393   59.1971   -4.4462 C   0  0  0  0  0  0
   -2.8767   58.9654   -4.8943 C   0  0  0  0  0  0
   -2.9741   58.1137   -6.1507 C   0  0  0  0  0  0
   -1.7536   57.2169   -6.3392 C   0  0  0  0  0  0
   -0.5123   58.1026   -6.4874 C   0  0  0  0  0  0
    0.7778   57.2644   -6.5563 C   0  0  0  0  0  0
    1.9791   58.0831   -7.0331 C   0  0  0  0  0  0
    2.2900   59.3599   -6.2139 C   0  0  0  0  0  0
   -1.9188   56.8432   -8.8247 C   0  0  0  0  0  0
   -2.2420   55.7797   -9.8610 C   0  0  0  0  0  0
   -2.0206   56.4799   -7.5611 N   0  0  0  0  0  0
   -1.8368   60.9585   -3.0185 O   0  0  0  0  0  0
    0.2152   60.8658   -3.4617 O   0  0  0  0  0  0
   -0.7499   58.2786   -3.5949 O   0  0  0  0  0  0
   -4.0996   57.2806   -5.9991 O   0  0  0  0  0  0
   -0.3405   58.9492   -5.3317 O   0  0  0  0  0  0
    1.1330   56.7476   -5.2837 O   0  0  0  0  0  0
    3.0802   57.2191   -6.8640 O   0  0  0  0  0  0
    2.2870   59.0853   -4.8214 O   0  0  0  0  0  0
   -1.6064   58.0013   -9.1063 O   0  0  0  0  0  0
   -2.2528   55.5501   -7.3213 H   0  0  0  0  0  0
   -0.4788   57.5691   -4.2089 H   0  0  0  0  0  0
   -4.1169   56.6906   -6.7789 H   0  0  0  0  0  0
    1.8673   56.2855   -5.7440 H   0  0  0  0  0  0
    3.8250   57.7208   -7.2228 H   0  0  0  0  0  0
    1.3730   58.7531   -4.7284 H   0  0  0  0  0  0
    0.9589   60.4732   -3.8750 H   0  0  0  0  0  0
  1 13  2  0  0  0
  1 14  1  0  0  0
  2  1  1  0  0  0
  2  3  1  0  0  0
  2 15  1  0  0  0
  2 17  1  0  0  0
  3  4  1  0  0  0
  4  5  1  0  0  0
  4 16  1  0  0  0
  5  6  1  0  0  0
  5 12  1  0  0  0
  6  7  1  0  0  0
  6 17  1  0  0  0
  7  8  1  0  0  0
  7 18  1  0  0  0
  8  9  1  0  0  0
  8 19  1  0  0  0
  9 20  1  0  0  0
 10 11  1  0  0  0
 10 12  1  0  0  0
 10 21  2  0  0  0
 12 22  1  0  0  0
 14 28  1  0  0  0
 15 23  1  0  0  0
 16 24  1  0  0  0
 18 25  1  0  0  0
 19 26  1  0  0  0
 20 27  1  0  0  0
M  END
>  <CHROM.0>
-179.73163202,-178.10158350,65.66017759,-170.28384291,-47.38107483,-143.12011513
136.50928663,-104.42872655,-166.51222978

>  <CHROM.1>
-6.30180401,16.11974370,-145.83312121,-175.86680360,78.32269676,166.36134013
55.71503950,176.24842981,47.61244488,176.29226661,-58.89845521,-0.59288295
58.23943587,-5.93785701,1.15960981,0.01804168,0.95963190

>  <FORMUL>
      SIA    C11 H19 N1 O9

>  <HET>
 SIA  A 467      39

>  <HETNAM>
     SIA O-SIALIC ACID

>  <Name>
SIA.pdb

>  <RI>
0

>  <Rbt.Current_Directory>
/home/malgorzata/Desktop/rDOCK_IFD/Wyniki/12_neuraminidase/IFD

>  <Rbt.Executable>
rbdock ($Id: //depot/dev/client3/rdock/2013.1/src/exe/rbdock.cxx#4 $)

>  <Rbt.Library>
libRbt.so (2013.1, Build901 2013/11/27)

>  <Rbt.Parameter_File>
/home/malgorzata/Desktop/rDock_2013.1_src/data/scripts/dock.prm

>  <Rbt.Receptor>
cavity.prm

>  <SCORE>
-52.4487

>  <SCORE.INTER>
-18.172

>  <SCORE.INTER.CONST>
1

>  <SCORE.INTER.POLAR>
-3.91159

>  <SCORE.INTER.REPUL>
0

>  <SCORE.INTER.ROT>
5

>  <SCORE.INTER.VDW>
-15.2726

>  <SCORE.INTER.norm>
-0.865334

>  <SCORE.INTRA>
-20.899

>  <SCORE.INTRA.DIHEDRAL>
-18.4415

>  <SCORE.INTRA.DIHEDRAL.0>
24.6845

>  <SCORE.INTRA.POLAR>
-1.68592

>  <SCORE.INTRA.POLAR.0>
-0.967721

>  <SCORE.INTRA.REPUL>
0

>  <SCORE.INTRA.REPUL.0>
0

>  <SCORE.INTRA.VDW>
-5.94613

>  <SCORE.INTRA.VDW.0>
7.44847

>  <SCORE.INTRA.norm>
-0.995191

>  <SCORE.RESTR>
0

>  <SCORE.RESTR.CAVITY>
0

>  <SCORE.RESTR.norm>
0

>  <SCORE.SYSTEM>
-13.3776

>  <SCORE.SYSTEM.CONST>
0

>  <SCORE.SYSTEM.DIHEDRAL>
2.48618

>  <SCORE.SYSTEM.POLAR>
-3.44303

>  <SCORE.SYSTEM.REPUL>
0.0940808

>  <SCORE.SYSTEM.VDW>
-3.38483

>  <SCORE.SYSTEM.norm>
-0.63703

>  <SCORE.heavy>
21

>  <SCORE.norm>
-2.49756

$$$$
SIA.pdb
  rDOCK(R)          3D
libRbt.so/2013.1/901 2013/11/27
 28 28  0  0  0  0  0  0  0  0999 V2000
   -2.0170   53.7652  -10.3234 C   0  0  0  0  0  0
   -2.2611   54.8843   -9.3078 C   0  0  0  0  0  0
   -1.3832   55.2533   -8.1188 C   0  0  0  0  0  0
   -1.5592   56.6990   -7.6802 C   0  0  0  0  0  0
   -2.9183   57.2653   -8.0821 C   0  0  0  0  0  0
   -3.0282   57.2389   -9.6100 C   0  0  0  0  0  0
   -4.4249   57.6801  -10.0860 C   0  0  0  0  0  0
   -4.4059   58.2327  -11.5125 C   0  0  0  0  0  0
   -4.0000   57.2267  -12.6177 C   0  0  0  0  0  0
   -3.9117   59.4244   -7.2476 C   0  0  0  0  0  0
   -3.5305   60.7927   -6.7074 C   0  0  0  0  0  0
   -2.9150   58.6276   -7.5803 N   0  0  0  0  0  0
   -1.3218   52.8516   -9.8414 O   0  0  0  0  0  0
   -2.2797   53.6464  -11.5346 O   0  0  0  0  0  0
   -3.6061   54.4270   -9.1482 O   0  0  0  0  0  0
   -1.4861   56.7160   -6.2736 O   0  0  0  0  0  0
   -2.8733   55.8967  -10.1161 O   0  0  0  0  0  0
   -5.3397   56.5958  -10.0954 O   0  0  0  0  0  0
   -5.7458   58.5899  -11.7668 O   0  0  0  0  0  0
   -3.8373   57.8803  -13.8670 O   0  0  0  0  0  0
   -5.0748   59.0527   -7.4118 O   0  0  0  0  0  0
   -1.9780   58.9061   -7.4374 H   0  0  0  0  0  0
   -3.5520   53.8523   -8.3603 H   0  0  0  0  0  0
   -2.2455   56.1925   -5.9485 H   0  0  0  0  0  0
   -6.0339   57.2625  -10.2904 H   0  0  0  0  0  0
   -5.7079   59.0336  -12.6252 H   0  0  0  0  0  0
   -3.5398   57.1207  -14.4046 H   0  0  0  0  0  0
   -2.6934   54.3496  -11.9954 H   0  0  0  0  0  0
  1 13  2  0  0  0
  1 14  1  0  0  0
  2  1  1  0  0  0
  2  3  1  0  0  0
  2 15  1  0  0  0
  2 17  1  0  0  0
  3  4  1  0  0  0
  4  5  1  0  0  0
  4 16  1  0  0  0
  5  6  1  0  0  0
  5 12  1  0  0  0
  6  7  1  0  0  0
  6 17  1  0  0  0
  7  8  1  0  0  0
  7 18  1  0  0  0
  8  9  1  0  0  0
  8 19  1  0  0  0
  9 20  1  0  0  0
 10 11  1  0  0  0
 10 12  1  0  0  0
 10 21  2  0  0  0
 12 22  1  0  0  0
 14 28  1  0  0  0
 15 23  1  0  0  0
 16 24  1  0  0  0
 18 25  1  0  0  0
 19 26  1  0  0  0
 20 27  1  0  0  0
M  END
>  <CHROM.0>
57.26322860,-60.65470025,64.13802674,-171.92574365,-53.31411480,-147.32902605
131.61809517,-69.70992943,-162.62778169

>  <CHROM.1>
1.70260229,25.65450030,95.80007946,-63.64500705,-155.04927230,155.53740240
63.76446646,172.24516329,-171.99948637,173.48108881,176.82259339,-3.27037828
56.77723586,-9.52131960,-1.09943023,-0.99303204,0.95450534

>  <FORMUL>
      SIA    C11 H19 N1 O9

>  <HET>
 SIA  A 467      39

>  <HETNAM>
     SIA O-SIALIC ACID

>  <Name>
SIA.pdb

>  <RI>
0

>  <Rbt.Current_Directory>
/home/malgorzata/Desktop/rDOCK_IFD/Wyniki/12_neuraminidase/IFD

>  <Rbt.Executable>
rbdock ($Id: //depot/dev/client3/rdock/2013.1/src/exe/rbdock.cxx#4 $)

>  <Rbt.Library>
libRbt.so (2013.1, Build901 2013/11/27)

>  <Rbt.Parameter_File>
/home/malgorzata/Desktop/rDock_2013.1_src/data/scripts/dock.prm

>  <Rbt.Receptor>
cavity.prm

>  <SCORE>
-32.0985

>  <SCORE.INTER>
-6.90788

>  <SCORE.INTER.CONST>
1

>  <SCORE.INTER.POLAR>
-2.1811

>  <SCORE.INTER.REPUL>
0.162163

>  <SCORE.INTER.ROT>
5

>  <SCORE.INTER.VDW>
-10.7029

>  <SCORE.INTER.norm>
-0.328946

>  <SCORE.INTRA>
-11.7748

>  <SCORE.INTRA.DIHEDRAL>
-16.3151

>  <SCORE.INTRA.DIHEDRAL.0>
24.6845

>  <SCORE.INTRA.POLAR>
0.598649

>  <SCORE.INTRA.POLAR.0>
-0.967721

>  <SCORE.INTRA.REPUL>
0.25009

>  <SCORE.INTRA.REPUL.0>
0

>  <SCORE.INTRA.VDW>
-6.90313

>  <SCORE.INTRA.VDW.0>
7.44847

>  <SCORE.INTRA.norm>
-0.560707

>  <SCORE.RESTR>
0

>  <SCORE.RESTR.CAVITY>
0

>  <SCORE.RESTR.norm>
0

>  <SCORE.SYSTEM>
-13.4158

>  <SCORE.SYSTEM.CONST>
0

>  <SCORE.SYSTEM.DIHEDRAL>
2.58471

>  <SCORE.SYSTEM.POLAR>
-3.50701

>  <SCORE.SYSTEM.REPUL>
0.0615475

>  <SCORE.SYSTEM.VDW>
-3.092

>  <SCORE.SYSTEM.norm>
-0.638846

>  <SCORE.heavy>
21

>  <SCORE.norm>
-1.5285

$$$$
SIA.pdb
  rDOCK(R)          3D
libRbt.so/2013.1/901 2013/11/27
 28 28  0  0  0  0  0  0  0  0999 V2000
   -1.1807   60.4303   -3.9870 C   0  0  0  0  0  0
   -1.7486   59.4195   -4.9865 C   0  0  0  0  0  0
   -3.0162   59.5637   -5.8190 C   0  0  0  0  0  0
   -2.9938   58.7159   -7.0816 C   0  0  0  0  0  0
   -2.0580   57.5166   -6.9580 C   0  0  0  0  0  0
   -0.6320   58.0285   -6.7308 C   0  0  0  0  0  0
    0.3513   56.8720   -6.4713 C   0  0  0  0  0  0
    1.8114   57.3068   -6.6121 C   0  0  0  0  0  0
    2.3210   58.3064   -5.5447 C   0  0  0  0  0  0
   -1.7946   57.1877   -9.4414 C   0  0  0  0  0  0
   -2.0327   56.1776  -10.5515 C   0  0  0  0  0  0
   -2.1706   56.8263   -8.2302 N   0  0  0  0  0  0
   -0.0888   60.8902   -4.3696 O   0  0  0  0  0  0
   -1.5357   60.7893   -2.8489 O   0  0  0  0  0  0
   -1.5925   58.3873   -4.0100 O   0  0  0  0  0  0
   -4.2997   58.2236   -7.2721 O   0  0  0  0  0  0
   -0.5596   58.8470   -5.5448 O   0  0  0  0  0  0
    0.2179   56.3589   -5.1554 O   0  0  0  0  0  0
    2.5487   56.1184   -6.4341 O   0  0  0  0  0  0
    2.0432   59.6449   -5.9261 O   0  0  0  0  0  0
   -1.3098   58.3054   -9.6249 O   0  0  0  0  0  0
   -2.5442   55.9266   -8.0660 H   0  0  0  0  0  0
   -1.7675   57.5727   -4.5196 H   0  0  0  0  0  0
   -4.5221   57.7062   -6.4725 H   0  0  0  0  0  0
   -0.6648   56.0334   -5.4372 H   0  0  0  0  0  0
    3.4625   56.3856   -6.6041 H   0  0  0  0  0  0
    1.0946   59.6809   -5.6952 H   0  0  0  0  0  0
   -2.2760   60.3859   -2.4400 H   0  0  0  0  0  0
  1 13  2  0  0  0
  1 14  1  0  0  0
  2  1  1  0  0  0
  2  3  1  0  0  0
  2 15  1  0  0  0
  2 17  1  0  0  0
  3  4  1  0  0  0
  4  5  1  0  0  0
  4 16  1  0  0  0
  5  6  1  0  0  0
  5 12  1  0  0  0
  6  7  1  0  0  0
  6 17  1  0  0  0
  7  8  1  0  0  0
  7 18  1  0  0  0
  8  9  1  0  0  0
  8 19  1  0  0  0
  9 20  1  0  0  0
 10 11  1  0  0  0
 10 12  1  0  0  0
 10 21  2  0  0  0
 12 22  1  0  0  0
 14 28  1  0  0  0
 15 23  1  0  0  0
 16 24  1  0  0  0
 18 25  1  0  0  0
 19 26  1  0  0  0
 20 27  1  0  0  0
M  END
>  <CHROM.0>
65.10907269,-61.55889863,66.33230681,-80.65402851,-55.93996387,-64.77304282
113.85314829,-159.60669237,-169.35285067

>  <CHROM.1>
2.42403603,-114.25222372,-170.30299878,-59.07845849,67.41960232,164.73625879
67.14659755,67.80202340,-86.60201095,175.02746512,78.05318737,-0.82060798
58.27573721,-6.31713744,1.26295998,-0.27154108,0.97086552

>  <FORMUL>
      SIA    C11 H19 N1 O9

>  <HET>
 SIA  A 467      39

>  <HETNAM>
     SIA O-SIALIC ACID

>  <Name>
SIA.pdb

>  <RI>
0

>  <Rbt.Current_Directory>
/home/malgorzata/Desktop/rDOCK_IFD/Wyniki/12_neuraminidase/IFD

>  <Rbt.Executable>
rbdock ($Id: //depot/dev/client3/rdock/2013.1/src/exe/rbdock.cxx#4 $)

>  <Rbt.Library>
libRbt.so (2013.1, Build901 2013/11/27)

>  <Rbt.Parameter_File>
/home/malgorzata/Desktop/rDock_2013.1_src/data/scripts/dock.prm

>  <Rbt.Receptor>
cavity.prm

>  <SCORE>
-45.8705

>  <SCORE.INTER>
-13.7156

>  <SCORE.INTER.CONST>
1

>  <SCORE.INTER.POLAR>
-3.15147

>  <SCORE.INTER.REPUL>
0.0083112

>  <SCORE.INTER.ROT>
5

>  <SCORE.INTER.VDW>
-13.4421

>  <SCORE.INTER.norm>
-0.653122

>  <SCORE.INTRA>
-18.9422

>  <SCORE.INTRA.DIHEDRAL>
-17.09

>  <SCORE.INTRA.DIHEDRAL.0>
24.6845

>  <SCORE.INTRA.POLAR>
-0.677673

>  <SCORE.INTRA.POLAR.0>
-0.967721

>  <SCORE.INTRA.REPUL>
0

>  <SCORE.INTRA.REPUL.0>
0

>  <SCORE.INTRA.VDW>
-8.09311

>  <SCORE.INTRA.VDW.0>
7.44847

>  <SCORE.INTRA.norm>
-0.90201

>  <SCORE.RESTR>
0

>  <SCORE.RESTR.CAVITY>
0

>  <SCORE.RESTR.norm>
0

>  <SCORE.SYSTEM>
-13.2128

>  <SCORE.SYSTEM.CONST>
0

>  <SCORE.SYSTEM.DIHEDRAL>
2.47341

>  <SCORE.SYSTEM.POLAR>
-3.21059

>  <SCORE.SYSTEM.REPUL>
0.0940808

>  <SCORE.SYSTEM.VDW>
-4.0039

>  <SCORE.SYSTEM.norm>
-0.62918

>  <SCORE.heavy>
21

>  <SCORE.norm>
-2.18431

$$$$
SIA.pdb
  rDOCK(R)          3D
libRbt.so/2013.1/901 2013/11/27
 28 28  0  0  0  0  0  0  0  0999 V2000
   -2.8537   59.9962   -8.9545 C   0  0  0  0  0  0
   -3.3320   58.6969   -9.6075 C   0  0  0  0  0  0
   -3.8928   58.5279  -11.0137 C   0  0  0  0  0  0
   -3.7247   57.1150  -11.5513 C   0  0  0  0  0  0
   -3.6040   56.0808  -10.4353 C   0  0  0  0  0  0
   -2.3579   56.4002   -9.6033 C   0  0  0  0  0  0
   -2.2387   55.4715   -8.3805 C   0  0  0  0  0  0
   -2.1305   53.9979   -8.7771 C   0  0  0  0  0  0
   -0.8836   53.6165   -9.6126 C   0  0  0  0  0  0
   -2.6631   54.4461  -12.1048 C   0  0  0  0  0  0
   -2.7583   52.9970  -12.5524 C   0  0  0  0  0  0
   -3.4639   54.8094  -11.1222 N   0  0  0  0  0  0
   -3.1662   60.9927   -9.6324 O   0  0  0  0  0  0
   -2.1401   60.2347   -7.9626 O   0  0  0  0  0  0
   -4.1058   58.4115   -8.4399 O   0  0  0  0  0  0
   -4.8842   56.8138  -12.2920 O   0  0  0  0  0  0
   -2.4331   57.7305   -9.0498 O   0  0  0  0  0  0
   -1.0786   55.7605   -7.6168 O   0  0  0  0  0  0
   -2.0168   53.3132   -7.5500 O   0  0  0  0  0  0
   -0.7459   52.2072   -9.7083 O   0  0  0  0  0  0
   -1.9160   55.2760  -12.6256 O   0  0  0  0  0  0
   -4.0549   54.1503  -10.6839 H   0  0  0  0  0  0
   -4.8830   58.9940   -8.5420 H   0  0  0  0  0  0
   -4.8765   57.4018  -13.0735 H   0  0  0  0  0  0
   -1.5692   55.3980   -6.8471 H   0  0  0  0  0  0
   -1.1625   53.6032   -7.2017 H   0  0  0  0  0  0
    0.0179   52.1645  -10.3161 H   0  0  0  0  0  0
   -1.8237   59.5296   -7.4326 H   0  0  0  0  0  0
  1 13  2  0  0  0
  1 14  1  0  0  0
  2  1  1  0  0  0
  2  3  1  0  0  0
  2 15  1  0  0  0
  2 17  1  0  0  0
  3  4  1  0  0  0
  4  5  1  0  0  0
  4 16  1  0  0  0
  5  6  1  0  0  0
  5 12  1  0  0  0
  6  7  1  0  0  0
  6 17  1  0  0  0
  7  8  1  0  0  0
  7 18  1  0  0  0
  8  9  1  0  0  0
  8 19  1  0  0  0
  9 20  1  0  0  0
 10 11  1  0  0  0
 10 12  1  0  0  0
 10 21  2  0  0  0
 12 22  1  0  0  0
 14 28  1  0  0  0
 15 23  1  0  0  0
 16 24  1  0  0  0
 18 25  1  0  0  0
 19 26  1  0  0  0
 20 27  1  0  0  0
M  END
>  <CHROM.0>
-176.28717639,-178.42304270,64.37053602,124.02422035,-57.75517944,88.37923976
132.27224151,-106.36396319,-34.28249821

>  <CHROM.1>
-3.36824734,10.77888433,77.49861499,66.93815175,49.43326951,60.43012478,62.65699826
153.27005945,168.85654816,-66.23853460,175.23043025,-2.66602693,56.31310002
-9.89223916,-2.05346792,1.08740180,-2.55381211

>  <FORMUL>
      SIA    C11 H19 N1 O9

>  <HET>
 SIA  A 467      39

>  <HETNAM>
     SIA O-SIALIC ACID

>  <Name>
SIA.pdb

>  <RI>
0

>  <Rbt.Current_Directory>
/home/malgorzata/Desktop/rDOCK_IFD/Wyniki/12_neuraminidase/IFD

>  <Rbt.Executable>
rbdock ($Id: //depot/dev/client3/rdock/2013.1/src/exe/rbdock.cxx#4 $)

>  <Rbt.Library>
libRbt.so (2013.1, Build901 2013/11/27)

>  <Rbt.Parameter_File>
/home/malgorzata/Desktop/rDock_2013.1_src/data/scripts/dock.prm

>  <Rbt.Receptor>
cavity.prm

>  <SCORE>
-40.7741

>  <SCORE.INTER>
-16.2496

>  <SCORE.INTER.CONST>
1

>  <SCORE.INTER.POLAR>
-3.83568

>  <SCORE.INTER.REPUL>
0.0011163

>  <SCORE.INTER.ROT>
5

>  <SCORE.INTER.VDW>
-13.6138

>  <SCORE.INTER.norm>
-0.773789

>  <SCORE.INTRA>
-13.2099

>  <SCORE.INTRA.DIHEDRAL>
-18.2878

>  <SCORE.INTRA.DIHEDRAL.0>
24.6845

>  <SCORE.INTRA.POLAR>
0.967721

>  <SCORE.INTRA.POLAR.0>
-0.967721

>  <SCORE.INTRA.REPUL>
0

>  <SCORE.INTRA.REPUL.0>
0

>  <SCORE.INTRA.VDW>
-7.35621

>  <SCORE.INTRA.VDW.0>
7.44847

>  <SCORE.INTRA.norm>
-0.629041

>  <SCORE.RESTR>
0

>  <SCORE.RESTR.CAVITY>
0

>  <SCORE.RESTR.norm>
0

>  <SCORE.SYSTEM>
-11.3147

>  <SCORE.SYSTEM.CONST>
0

>  <SCORE.SYSTEM.DIHEDRAL>
3.72122

>  <SCORE.SYSTEM.POLAR>
-2.74058

>  <SCORE.SYSTEM.REPUL>
0.0959297

>  <SCORE.SYSTEM.VDW>
-4.33695

>  <SCORE.SYSTEM.norm>
-0.538794

>  <SCORE.heavy>
21

>  <SCORE.norm>
-1.94162

$$$$
SIA.pdb
  rDOCK(R)          3D
libRbt.so/2013.1/901 2013/11/27
 28 28  0  0  0  0  0  0  0  0999 V2000
    2.2530   60.9101   -4.0075 C   0  0  0  0  0  0
    1.9515   59.7336   -4.9393 C   0  0  0  0  0  0
    2.9325   58.6774   -5.4323 C   0  0  0  0  0  0
    2.2506   57.3776   -5.8308 C   0  0  0  0  0  0
    0.7887   57.5847   -6.2175 C   0  0  0  0  0  0
    0.0343   58.1386   -5.0045 C   0  0  0  0  0  0
   -1.4231   58.4915   -5.3555 C   0  0  0  0  0  0
   -2.1181   59.2725   -4.2385 C   0  0  0  0  0  0
   -1.8071   60.7886   -4.1844 C   0  0  0  0  0  0
   -0.6920   55.8889   -7.3474 C   0  0  0  0  0  0
   -0.8793   54.3925   -7.5346 C   0  0  0  0  0  0
    0.3088   56.2616   -6.5738 N   0  0  0  0  0  0
    2.6232   60.5224   -2.8838 O   0  0  0  0  0  0
    2.1002   62.1408   -4.1181 O   0  0  0  0  0  0
    1.2852   60.6295   -5.8320 O   0  0  0  0  0  0
    2.9285   56.8855   -6.9632 O   0  0  0  0  0  0
    0.6166   59.3804   -4.5567 O   0  0  0  0  0  0
   -1.4980   59.3083   -6.5131 O   0  0  0  0  0  0
   -3.4919   59.1543   -4.5320 O   0  0  0  0  0  0
   -1.8111   61.2623   -2.8466 O   0  0  0  0  0  0
   -1.4309   56.7393   -7.8464 O   0  0  0  0  0  0
    0.9195   55.5913   -6.1819 H   0  0  0  0  0  0
    0.6870   60.0401   -6.3308 H   0  0  0  0  0  0
    2.3492   56.2055   -7.3613 H   0  0  0  0  0  0
   -1.5047   58.4721   -7.0283 H   0  0  0  0  0  0
   -3.9263   59.5826   -3.7815 H   0  0  0  0  0  0
   -1.0715   60.7329   -2.4898 H   0  0  0  0  0  0
    2.2979   62.7042   -3.3959 H   0  0  0  0  0  0
  1 13  2  0  0  0
  1 14  1  0  0  0
  2  1  1  0  0  0
  2  3  1  0  0  0
  2 15  1  0  0  0
  2 17  1  0  0  0
  3  4  1  0  0  0
  4  5  1  0  0  0
  4 16  1  0  0  0
  5  6  1  0  0  0
  5 12  1  0  0  0
  6  7  1  0  0  0
  6 17  1  0  0  0
  7  8  1  0  0  0
  7 18  1  0  0  0
  8  9  1  0  0  0
  8 19  1  0  0  0
  9 20  1  0  0  0
 10 11  1  0  0  0
 10 12  1  0  0  0
 10 21  2  0  0  0
 12 22  1  0  0  0
 14 28  1  0  0  0
 15 23  1  0  0  0
 16 24  1  0  0  0
 18 25  1  0  0  0
 19 26  1  0  0  0
 20 27  1  0  0  0
M  END
>  <CHROM.0>
66.54146811,-178.48723737,-58.71940039,-170.19417199,71.28583125,88.54313962
134.35769221,-39.45229475,-169.64891328

>  <CHROM.1>
175.74720553,-62.92610097,-157.12821147,-164.44629833,-156.25336811,-169.78563330
80.41699806,87.13482501,-146.86037109,175.19250862,62.62021158,0.20658444
58.78717868,-5.35828881,-1.39246683,-0.04268956,-2.53812129

>  <FORMUL>
      SIA    C11 H19 N1 O9

>  <HET>
 SIA  A 467      39

>  <HETNAM>
     SIA O-SIALIC ACID

>  <Name>
SIA.pdb

>  <RI>
0

>  <Rbt.Current_Directory>
/home/malgorzata/Desktop/rDOCK_IFD/Wyniki/12_neuraminidase/IFD

>  <Rbt.Executable>
rbdock ($Id: //depot/dev/client3/rdock/2013.1/src/exe/rbdock.cxx#4 $)

>  <Rbt.Library>
libRbt.so (2013.1, Build901 2013/11/27)

>  <Rbt.Parameter_File>
/home/malgorzata/Desktop/rDock_2013.1_src/data/scripts/dock.prm

>  <Rbt.Receptor>
cavity.prm

>  <SCORE>
-42.7337

>  <SCORE.INTER>
-20.1773

>  <SCORE.INTER.CONST>
1

>  <SCORE.INTER.POLAR>
-3.65262

>  <SCORE.INTER.REPUL>
0

>  <SCORE.INTER.ROT>
5

>  <SCORE.INTER.VDW>
-18.1584

>  <SCORE.INTER.norm>
-0.960823

>  <SCORE.INTRA>
-12.4681

>  <SCORE.INTRA.DIHEDRAL>
-10.9555

>  <SCORE.INTRA.DIHEDRAL.0>
24.6845

>  <SCORE.INTRA.POLAR>
-0.307551

>  <SCORE.INTRA.POLAR.0>
-0.967721

>  <SCORE.INTRA.REPUL>
0

>  <SCORE.INTRA.REPUL.0>
0

>  <SCORE.INTRA.VDW>
-5.94472

>  <SCORE.INTRA.VDW.0>
7.44847

>  <SCORE.INTRA.norm>
-0.593721

>  <SCORE.RESTR>
0.029567

>  <SCORE.RESTR.CAVITY>
0.029567

>  <SCORE.RESTR.norm>
0.00140795

>  <SCORE.SYSTEM>
-10.1178

>  <SCORE.SYSTEM.CONST>
0

>  <SCORE.SYSTEM.DIHEDRAL>
2.38068

>  <SCORE.SYSTEM.POLAR>
-2.8156

>  <SCORE.SYSTEM.VDW>
-1.73513

>  <SCORE.SYSTEM.norm>
-0.481801

>  <SCORE.heavy>
21

>  <SCORE.norm>
-2.03494

$$$$
