SIA.pdb
  rDOCK(R)          3D
libRbt.so/2013.1/901 2013/11/27
 28 28  0  0  0  0  0  0  0  0999 V2000
   -5.8844   58.5079   -6.6557 C   0  0  0  0  0  0
   -5.1260   59.4445   -5.7119 C   0  0  0  0  0  0
   -4.6414   59.1325   -4.3018 C   0  0  0  0  0  0
   -3.4676   60.0003   -3.8746 C   0  0  0  0  0  0
   -3.4157   61.3215   -4.6369 C   0  0  0  0  0  0
   -3.2373   61.0204   -6.1285 C   0  0  0  0  0  0
   -3.3018   62.3034   -6.9779 C   0  0  0  0  0  0
   -2.5654   62.1566   -8.3109 C   0  0  0  0  0  0
   -1.0254   62.0238   -8.2170 C   0  0  0  0  0  0
   -2.0304   63.3007   -3.9241 C   0  0  0  0  0  0
   -0.7034   63.6698   -3.2821 C   0  0  0  0  0  0
   -2.2582   62.0138   -4.0999 N   0  0  0  0  0  0
   -5.1622   58.1151   -7.5907 O   0  0  0  0  0  0
   -7.0777   58.1598   -6.7277 O   0  0  0  0  0  0
   -6.0880   60.4681   -5.9773 O   0  0  0  0  0  0
   -3.6493   60.2989   -2.5102 O   0  0  0  0  0  0
   -4.3146   60.1972   -6.6220 O   0  0  0  0  0  0
   -4.6392   62.6480   -7.3022 O   0  0  0  0  0  0
   -3.0419   60.9403   -8.8412 O   0  0  0  0  0  0
   -0.4468   63.1903   -7.6523 O   0  0  0  0  0  0
   -2.8612   64.1278   -4.3033 O   0  0  0  0  0  0
   -1.6088   61.3395   -3.7846 H   0  0  0  0  0  0
   -5.7926   60.8321   -6.8341 H   0  0  0  0  0  0
   -2.9137   60.8901   -2.2537 H   0  0  0  0  0  0
   -4.7305   62.9260   -6.3647 H   0  0  0  0  0  0
   -3.9789   61.1121   -9.0081 H   0  0  0  0  0  0
   -0.7003   63.8393   -8.3372 H   0  0  0  0  0  0
   -7.3678   57.6258   -7.4409 H   0  0  0  0  0  0
  1 13  2  0  0  0
  1 14  1  0  0  0
  2  1  1  0  0  0
  2  3  1  0  0  0
  2 15  1  0  0  0
  2 17  1  0  0  0
  3  4  1  0  0  0
  4  5  1  0  0  0
  4 16  1  0  0  0
  5  6  1  0  0  0
  5 12  1  0  0  0
  6  7  1  0  0  0
  6 17  1  0  0  0
  7  8  1  0  0  0
  7 18  1  0  0  0
  8  9  1  0  0  0
  8 19  1  0  0  0
  9 20  1  0  0  0
 10 11  1  0  0  0
 10 12  1  0  0  0
 10 21  2  0  0  0
 12 22  1  0  0  0
 14 28  1  0  0  0
 15 23  1  0  0  0
 16 24  1  0  0  0
 18 25  1  0  0  0
 19 26  1  0  0  0
 20 27  1  0  0  0
M  END
>  <CHROM.0>
-178.14863213,65.15822194,-57.36855702,-151.06782401,-105.24600996,89.00438072
-69.47677530,31.61482002,-168.51484925,-151.23101214

>  <CHROM.1>
174.29974168,-107.56178861,-80.50069923,-177.45060963,-147.44625396,155.60432214
-68.03880856,73.46749600,-62.73141916,65.35326299,-63.19120612,-3.58986804
61.10636002,-5.92506272,-2.91180446,0.79201107,1.54078632

>  <FORMUL>
      SIA    C11 H19 N1 O9

>  <HET>
 SIA  A 467      39

>  <HETNAM>
     SIA O-SIALIC ACID

>  <Name>
SIA.pdb

>  <RI>
0

>  <Rbt.Current_Directory>
/home/malgorzata/Desktop/rDOCK_IFD/Wyniki/12_neuraminidase/IFD

>  <Rbt.Executable>
rbdock ($Id: //depot/dev/client3/rdock/2013.1/src/exe/rbdock.cxx#4 $)

>  <Rbt.Library>
libRbt.so (2013.1, Build901 2013/11/27)

>  <Rbt.Parameter_File>
/home/malgorzata/Desktop/rDock_2013.1_src/data/scripts/hard_docking.prm

>  <Rbt.Receptor>
cavity.prm

>  <SCORE>
-24.1131

>  <SCORE.INTER>
-4.4449

>  <SCORE.INTER.CONST>
1

>  <SCORE.INTER.POLAR>
-1.12399

>  <SCORE.INTER.REPUL>
0.0153714

>  <SCORE.INTER.ROT>
5

>  <SCORE.INTER.VDW>
-11.1002

>  <SCORE.INTER.norm>
-0.211662

>  <SCORE.INTRA>
-13.1187

>  <SCORE.INTRA.DIHEDRAL>
-15.3665

>  <SCORE.INTRA.DIHEDRAL.0>
24.6845

>  <SCORE.INTRA.POLAR>
0.675131

>  <SCORE.INTRA.POLAR.0>
-0.967721

>  <SCORE.INTRA.REPUL>
0

>  <SCORE.INTRA.REPUL.0>
0

>  <SCORE.INTRA.VDW>
-7.73086

>  <SCORE.INTRA.VDW.0>
7.44847

>  <SCORE.INTRA.norm>
-0.624699

>  <SCORE.RESTR>
0.314951

>  <SCORE.RESTR.CAVITY>
0.314951

>  <SCORE.RESTR.norm>
0.0149977

>  <SCORE.SYSTEM>
-6.86444

>  <SCORE.SYSTEM.CONST>
0

>  <SCORE.SYSTEM.DIHEDRAL>
2.73555

>  <SCORE.SYSTEM.POLAR>
-2.19677

>  <SCORE.SYSTEM.REPUL>
0.631606

>  <SCORE.SYSTEM.VDW>
-3.92122

>  <SCORE.SYSTEM.norm>
-0.326878

>  <SCORE.heavy>
21

>  <SCORE.norm>
-1.14824

$$$$
SIA.pdb
  rDOCK(R)          3D
libRbt.so/2013.1/901 2013/11/27
 28 28  0  0  0  0  0  0  0  0999 V2000
   -7.2592   57.8083   -8.3901 C   0  0  0  0  0  0
   -6.1017   57.9889   -9.3754 C   0  0  0  0  0  0
   -6.1900   58.0500  -10.8950 C   0  0  0  0  0  0
   -5.0230   58.7945  -11.5254 C   0  0  0  0  0  0
   -3.7831   58.7889  -10.6355 C   0  0  0  0  0  0
   -4.1190   59.5022   -9.3218 C   0  0  0  0  0  0
   -2.9514   59.4265   -8.3204 C   0  0  0  0  0  0
   -1.7433   60.2495   -8.7717 C   0  0  0  0  0  0
   -1.9706   61.7781   -8.8713 C   0  0  0  0  0  0
   -2.7574   60.7789  -11.7899 C   0  0  0  0  0  0
   -1.5082   61.2261  -12.5307 C   0  0  0  0  0  0
   -2.7827   59.5227  -11.3894 N   0  0  0  0  0  0
   -8.3630   57.8653   -8.9633 O   0  0  0  0  0  0
   -7.3120   57.7267   -7.1489 O   0  0  0  0  0  0
   -5.3807   56.9586   -8.6956 O   0  0  0  0  0  0
   -4.6982   58.1198  -12.7183 O   0  0  0  0  0  0
   -5.2221   58.8577   -8.6512 O   0  0  0  0  0  0
   -3.3212   59.9340   -7.0483 O   0  0  0  0  0  0
   -0.7860   60.0509   -7.7559 O   0  0  0  0  0  0
   -0.8180   62.4328   -9.3785 O   0  0  0  0  0  0
   -3.7286   61.5082  -11.5824 O   0  0  0  0  0  0
   -2.0041   58.9321  -11.5335 H   0  0  0  0  0  0
   -4.5023   56.9856   -9.1215 H   0  0  0  0  0  0
   -4.4310   57.2144  -12.4627 H   0  0  0  0  0  0
   -4.0202   59.2441   -7.0439 H   0  0  0  0  0  0
   -1.2478   60.3151   -6.9483 H   0  0  0  0  0  0
   -0.1770   62.1831   -8.6848 H   0  0  0  0  0  0
   -6.5241   57.7624   -6.6430 H   0  0  0  0  0  0
  1 13  2  0  0  0
  1 14  1  0  0  0
  2  1  1  0  0  0
  2  3  1  0  0  0
  2 15  1  0  0  0
  2 17  1  0  0  0
  3  4  1  0  0  0
  4  5  1  0  0  0
  4 16  1  0  0  0
  5  6  1  0  0  0
  5 12  1  0  0  0
  6  7  1  0  0  0
  6 17  1  0  0  0
  7  8  1  0  0  0
  7 18  1  0  0  0
  8  9  1  0  0  0
  8 19  1  0  0  0
  9 20  1  0  0  0
 10 11  1  0  0  0
 10 12  1  0  0  0
 10 21  2  0  0  0
 12 22  1  0  0  0
 14 28  1  0  0  0
 15 23  1  0  0  0
 16 24  1  0  0  0
 18 25  1  0  0  0
 19 26  1  0  0  0
 20 27  1  0  0  0
M  END
>  <CHROM.0>
-177.92405807,-60.06060706,65.80713007,-97.48325165,-104.67424921,-87.11363177
57.70142783,-88.65546307,-155.76008894,143.60670699

>  <CHROM.1>
-1.04468553,-7.79074518,-172.79779220,-61.61672778,63.10520414,68.45109258
63.88396888,58.89675925,-176.24771041,-55.28444808,-60.60407316,-4.06194828
59.39824762,-9.65660928,-2.93336418,-0.57202952,-1.52373525

>  <FORMUL>
      SIA    C11 H19 N1 O9

>  <HET>
 SIA  A 467      39

>  <HETNAM>
     SIA O-SIALIC ACID

>  <Name>
SIA.pdb

>  <RI>
0

>  <Rbt.Current_Directory>
/home/malgorzata/Desktop/rDOCK_IFD/Wyniki/12_neuraminidase/IFD

>  <Rbt.Executable>
rbdock ($Id: //depot/dev/client3/rdock/2013.1/src/exe/rbdock.cxx#4 $)

>  <Rbt.Library>
libRbt.so (2013.1, Build901 2013/11/27)

>  <Rbt.Parameter_File>
/home/malgorzata/Desktop/rDock_2013.1_src/data/scripts/hard_docking.prm

>  <Rbt.Receptor>
cavity.prm

>  <SCORE>
-29.0499

>  <SCORE.INTER>
-0.0496609

>  <SCORE.INTER.CONST>
1

>  <SCORE.INTER.POLAR>
-0.531108

>  <SCORE.INTER.REPUL>
0.00283234

>  <SCORE.INTER.ROT>
5

>  <SCORE.INTER.VDW>
-8.65805

>  <SCORE.INTER.norm>
-0.0023648

>  <SCORE.INTRA>
-17.446

>  <SCORE.INTRA.DIHEDRAL>
-21.8175

>  <SCORE.INTRA.DIHEDRAL.0>
24.6845

>  <SCORE.INTRA.POLAR>
0.313177

>  <SCORE.INTRA.POLAR.0>
-0.967721

>  <SCORE.INTRA.REPUL>
0

>  <SCORE.INTRA.REPUL.0>
0

>  <SCORE.INTRA.VDW>
-7.60202

>  <SCORE.INTRA.VDW.0>
7.44847

>  <SCORE.INTRA.norm>
-0.830762

>  <SCORE.RESTR>
0

>  <SCORE.RESTR.CAVITY>
0

>  <SCORE.RESTR.norm>
0

>  <SCORE.SYSTEM>
-11.5543

>  <SCORE.SYSTEM.CONST>
0

>  <SCORE.SYSTEM.DIHEDRAL>
3.43481

>  <SCORE.SYSTEM.POLAR>
-2.79663

>  <SCORE.SYSTEM.REPUL>
0.159716

>  <SCORE.SYSTEM.VDW>
-4.56172

>  <SCORE.SYSTEM.norm>
-0.550203

>  <SCORE.heavy>
21

>  <SCORE.norm>
-1.38333

$$$$
SIA.pdb
  rDOCK(R)          3D
libRbt.so/2013.1/901 2013/11/27
 28 28  0  0  0  0  0  0  0  0999 V2000
   -7.1741   55.7069   -8.7760 C   0  0  0  0  0  0
   -6.0595   56.5355   -8.1321 C   0  0  0  0  0  0
   -5.4892   56.3749   -6.7287 C   0  0  0  0  0  0
   -4.0717   56.9116   -6.6018 C   0  0  0  0  0  0
   -3.7595   57.9776   -7.6485 C   0  0  0  0  0  0
   -3.8831   57.3494   -9.0403 C   0  0  0  0  0  0
   -3.7042   58.3980  -10.1540 C   0  0  0  0  0  0
   -2.8292   57.8865  -11.3000 C   0  0  0  0  0  0
   -3.3286   56.6013  -12.0051 C   0  0  0  0  0  0
   -1.8981   59.5266   -6.9552 C   0  0  0  0  0  0
   -0.3964   59.5738   -6.7271 C   0  0  0  0  0  0
   -2.3912   58.3773   -7.3734 N   0  0  0  0  0  0
   -7.9108   55.1843   -7.9192 O   0  0  0  0  0  0
   -7.4142   55.3761   -9.9520 O   0  0  0  0  0  0
   -6.7240   57.7296   -8.5518 O   0  0  0  0  0  0
   -3.9697   57.5135   -5.3325 O   0  0  0  0  0  0
   -5.2057   56.8119   -9.2492 O   0  0  0  0  0  0
   -4.9468   58.7574  -10.7368 O   0  0  0  0  0  0
   -2.8756   58.9163  -12.2617 O   0  0  0  0  0  0
   -2.2594   55.9241  -12.6474 O   0  0  0  0  0  0
   -2.6450   60.4944   -6.8010 O   0  0  0  0  0  0
   -1.8066   57.5886   -7.4842 H   0  0  0  0  0  0
   -7.4319   57.8339   -7.8871 H   0  0  0  0  0  0
   -4.0662   56.7960   -4.6750 H   0  0  0  0  0  0
   -4.4866   59.5549  -11.0785 H   0  0  0  0  0  0
   -2.4548   59.6658  -11.8184 H   0  0  0  0  0  0
   -2.7524   55.1654  -13.0160 H   0  0  0  0  0  0
   -8.1314   54.8033  -10.1405 H   0  0  0  0  0  0
  1 13  2  0  0  0
  1 14  1  0  0  0
  2  1  1  0  0  0
  2  3  1  0  0  0
  2 15  1  0  0  0
  2 17  1  0  0  0
  3  4  1  0  0  0
  4  5  1  0  0  0
  4 16  1  0  0  0
  5  6  1  0  0  0
  5 12  1  0  0  0
  6  7  1  0  0  0
  6 17  1  0  0  0
  7  8  1  0  0  0
  7 18  1  0  0  0
  8  9  1  0  0  0
  8 19  1  0  0  0
  9 20  1  0  0  0
 10 11  1  0  0  0
 10 12  1  0  0  0
 10 21  2  0  0  0
 12 22  1  0  0  0
 14 28  1  0  0  0
 15 23  1  0  0  0
 16 24  1  0  0  0
 18 25  1  0  0  0
 19 26  1  0  0  0
 20 27  1  0  0  0
M  END
>  <CHROM.0>
60.60110605,64.13598918,62.44733762,-104.28601489,108.01270944,-133.49305921
-71.84135079,-92.83718634,-170.57852040,-170.33717042

>  <CHROM.1>
175.73845389,23.70682798,79.26239386,65.60830289,-114.28006590,137.24501012
58.25379670,161.78217063,-156.92625429,63.97169667,179.63625133,-4.25845034
57.51887086,-8.85348232,2.78272411,-0.55312230,-1.74887883

>  <FORMUL>
      SIA    C11 H19 N1 O9

>  <HET>
 SIA  A 467      39

>  <HETNAM>
     SIA O-SIALIC ACID

>  <Name>
SIA.pdb

>  <RI>
0

>  <Rbt.Current_Directory>
/home/malgorzata/Desktop/rDOCK_IFD/Wyniki/12_neuraminidase/IFD

>  <Rbt.Executable>
rbdock ($Id: //depot/dev/client3/rdock/2013.1/src/exe/rbdock.cxx#4 $)

>  <Rbt.Library>
libRbt.so (2013.1, Build901 2013/11/27)

>  <Rbt.Parameter_File>
/home/malgorzata/Desktop/rDock_2013.1_src/data/scripts/hard_docking.prm

>  <Rbt.Receptor>
cavity.prm

>  <SCORE>
-28.1706

>  <SCORE.INTER>
-9.41454

>  <SCORE.INTER.CONST>
1

>  <SCORE.INTER.POLAR>
-1.80734

>  <SCORE.INTER.REPUL>
0.00355205

>  <SCORE.INTER.ROT>
5

>  <SCORE.INTER.VDW>
-13.6874

>  <SCORE.INTER.norm>
-0.448312

>  <SCORE.INTRA>
-11.0769

>  <SCORE.INTRA.DIHEDRAL>
-13.8996

>  <SCORE.INTRA.DIHEDRAL.0>
24.6845

>  <SCORE.INTRA.POLAR>
0.967721

>  <SCORE.INTRA.POLAR.0>
-0.967721

>  <SCORE.INTRA.REPUL>
0.100675

>  <SCORE.INTRA.REPUL.0>
0

>  <SCORE.INTRA.VDW>
-7.92067

>  <SCORE.INTRA.VDW.0>
7.44847

>  <SCORE.INTRA.norm>
-0.52747

>  <SCORE.RESTR>
0

>  <SCORE.RESTR.CAVITY>
0

>  <SCORE.RESTR.norm>
0

>  <SCORE.SYSTEM>
-7.67922

>  <SCORE.SYSTEM.CONST>
0

>  <SCORE.SYSTEM.DIHEDRAL>
2.63126

>  <SCORE.SYSTEM.POLAR>
-2.32239

>  <SCORE.SYSTEM.REPUL>
0.642477

>  <SCORE.SYSTEM.VDW>
-4.31112

>  <SCORE.SYSTEM.norm>
-0.365677

>  <SCORE.heavy>
21

>  <SCORE.norm>
-1.34146

$$$$
SIA.pdb
  rDOCK(R)          3D
libRbt.so/2013.1/901 2013/11/27
 28 28  0  0  0  0  0  0  0  0999 V2000
   -5.3569   59.1016  -11.7647 C   0  0  0  0  0  0
   -4.3499   60.1198  -12.3055 C   0  0  0  0  0  0
   -2.9509   60.4005  -11.7720 C   0  0  0  0  0  0
   -2.0265   60.9970  -12.8223 C   0  0  0  0  0  0
   -2.7937   61.7153  -13.9291 C   0  0  0  0  0  0
   -3.6928   60.6997  -14.6413 C   0  0  0  0  0  0
   -4.5930   61.3771  -15.6914 C   0  0  0  0  0  0
   -3.8019   61.8728  -16.9034 C   0  0  0  0  0  0
   -3.1169   60.7748  -17.7538 C   0  0  0  0  0  0
   -1.6026   63.4199  -15.3506 C   0  0  0  0  0  0
   -0.3691   63.6106  -16.2174 C   0  0  0  0  0  0
   -1.7674   62.2233  -14.8216 N   0  0  0  0  0  0
   -5.3131   59.0279  -10.5226 O   0  0  0  0  0  0
   -6.1119   58.2795  -12.3164 O   0  0  0  0  0  0
   -5.3774   61.1137  -12.3079 O   0  0  0  0  0  0
   -1.2207   61.9506  -12.1701 O   0  0  0  0  0  0
   -4.6092   60.0812  -13.7142 O   0  0  0  0  0  0
   -5.5696   60.4811  -16.1976 O   0  0  0  0  0  0
   -4.7713   62.4755  -17.7308 O   0  0  0  0  0  0
   -2.1760   61.3399  -18.6536 O   0  0  0  0  0  0
   -2.4438   64.2985  -15.1536 O   0  0  0  0  0  0
   -1.0920   61.5152  -14.9568 H   0  0  0  0  0  0
   -4.9686   61.8529  -12.7981 H   0  0  0  0  0  0
   -1.8272   62.6254  -11.8051 H   0  0  0  0  0  0
   -5.9050   60.4223  -15.2764 H   0  0  0  0  0  0
   -5.0731   63.2369  -17.2165 H   0  0  0  0  0  0
   -1.8429   60.5204  -19.0684 H   0  0  0  0  0  0
   -6.6295   57.6964  -11.7966 H   0  0  0  0  0  0
  1 13  2  0  0  0
  1 14  1  0  0  0
  2  1  1  0  0  0
  2  3  1  0  0  0
  2 15  1  0  0  0
  2 17  1  0  0  0
  3  4  1  0  0  0
  4  5  1  0  0  0
  4 16  1  0  0  0
  5  6  1  0  0  0
  5 12  1  0  0  0
  6  7  1  0  0  0
  6 17  1  0  0  0
  7  8  1  0  0  0
  7 18  1  0  0  0
  8  9  1  0  0  0
  8 19  1  0  0  0
  9 20  1  0  0  0
 10 11  1  0  0  0
 10 12  1  0  0  0
 10 21  2  0  0  0
 12 22  1  0  0  0
 14 28  1  0  0  0
 15 23  1  0  0  0
 16 24  1  0  0  0
 18 25  1  0  0  0
 19 26  1  0  0  0
 20 27  1  0  0  0
M  END
>  <CHROM.0>
61.57914735,-176.72190625,65.68274703,-142.80190203,-101.30549869,-70.07090753
-136.70347474,30.69982102,-3.48679140,-144.06152701

>  <CHROM.1>
176.36069240,36.89076578,-169.69763403,-60.74965996,-131.82962236,70.27452862
64.31551041,61.45042430,-166.69326245,65.71617366,178.52949015,-3.55801517
61.20624895,-14.44104830,2.06834252,0.61727546,1.78931730

>  <FORMUL>
      SIA    C11 H19 N1 O9

>  <HET>
 SIA  A 467      39

>  <HETNAM>
     SIA O-SIALIC ACID

>  <Name>
SIA.pdb

>  <RI>
0

>  <Rbt.Current_Directory>
/home/malgorzata/Desktop/rDOCK_IFD/Wyniki/12_neuraminidase/IFD

>  <Rbt.Executable>
rbdock ($Id: //depot/dev/client3/rdock/2013.1/src/exe/rbdock.cxx#4 $)

>  <Rbt.Library>
libRbt.so (2013.1, Build901 2013/11/27)

>  <Rbt.Parameter_File>
/home/malgorzata/Desktop/rDock_2013.1_src/data/scripts/hard_docking.prm

>  <Rbt.Receptor>
cavity.prm

>  <SCORE>
-22.1784

>  <SCORE.INTER>
1.77153

>  <SCORE.INTER.CONST>
1

>  <SCORE.INTER.POLAR>
-0.866025

>  <SCORE.INTER.REPUL>
0.00264696

>  <SCORE.INTER.ROT>
5

>  <SCORE.INTER.VDW>
-5.69722

>  <SCORE.INTER.norm>
0.0843585

>  <SCORE.INTRA>
-16.6268

>  <SCORE.INTRA.DIHEDRAL>
-20.0296

>  <SCORE.INTRA.DIHEDRAL.0>
24.6845

>  <SCORE.INTRA.POLAR>
0.55856

>  <SCORE.INTRA.POLAR.0>
-0.967721

>  <SCORE.INTRA.REPUL>
0

>  <SCORE.INTRA.REPUL.0>
0

>  <SCORE.INTRA.VDW>
-8.51109

>  <SCORE.INTRA.VDW.0>
7.44847

>  <SCORE.INTRA.norm>
-0.791752

>  <SCORE.RESTR>
1.0145

>  <SCORE.RESTR.CAVITY>
1.0145

>  <SCORE.RESTR.norm>
0.0483097

>  <SCORE.SYSTEM>
-8.33761

>  <SCORE.SYSTEM.CONST>
0

>  <SCORE.SYSTEM.DIHEDRAL>
2.58552

>  <SCORE.SYSTEM.POLAR>
-2.50541

>  <SCORE.SYSTEM.REPUL>
0.648194

>  <SCORE.SYSTEM.VDW>
-4.35296

>  <SCORE.SYSTEM.norm>
-0.397029

>  <SCORE.heavy>
21

>  <SCORE.norm>
-1.05611

$$$$
SIA.pdb
  rDOCK(R)          3D
libRbt.so/2013.1/901 2013/11/27
 28 28  0  0  0  0  0  0  0  0999 V2000
    1.6157   60.0200   -5.5809 C   0  0  0  0  0  0
    0.2836   60.4296   -4.9477 C   0  0  0  0  0  0
   -0.1157   61.8184   -4.4655 C   0  0  0  0  0  0
   -1.6223   62.0258   -4.4428 C   0  0  0  0  0  0
   -2.3867   60.7105   -4.3198 C   0  0  0  0  0  0
   -2.0673   59.8416   -5.5405 C   0  0  0  0  0  0
   -2.7058   58.4448   -5.4254 C   0  0  0  0  0  0
   -3.2688   57.9504   -6.7593 C   0  0  0  0  0  0
   -4.4085   58.8055   -7.3660 C   0  0  0  0  0  0
   -4.5463   61.6196   -5.2442 C   0  0  0  0  0  0
   -6.0034   61.8549   -4.8826 C   0  0  0  0  0  0
   -3.7864   61.0957   -4.3024 N   0  0  0  0  0  0
    1.4799   59.7189   -6.7814 O   0  0  0  0  0  0
    2.7544   59.8309   -5.1143 O   0  0  0  0  0  0
    0.3785   59.3135   -4.0596 O   0  0  0  0  0  0
   -1.9158   62.8009   -3.3040 O   0  0  0  0  0  0
   -0.6498   59.5917   -5.6404 O   0  0  0  0  0  0
   -1.7604   57.4714   -5.0114 O   0  0  0  0  0  0
   -2.1812   58.0389   -7.6520 O   0  0  0  0  0  0
   -5.0212   58.1371   -8.4578 O   0  0  0  0  0  0
   -4.0544   61.9172   -6.3340 O   0  0  0  0  0  0
   -4.1715   60.8361   -3.4305 H   0  0  0  0  0  0
    0.2504   58.5479   -4.6524 H   0  0  0  0  0  0
   -1.4727   63.6633   -3.4319 H   0  0  0  0  0  0
   -1.7976   57.8992   -4.1282 H   0  0  0  0  0  0
   -2.4951   57.5825   -8.4448 H   0  0  0  0  0  0
   -4.2859   58.1774   -9.0999 H   0  0  0  0  0  0
    2.9271   60.0135   -4.2116 H   0  0  0  0  0  0
  1 13  2  0  0  0
  1 14  1  0  0  0
  2  1  1  0  0  0
  2  3  1  0  0  0
  2 15  1  0  0  0
  2 17  1  0  0  0
  3  4  1  0  0  0
  4  5  1  0  0  0
  4 16  1  0  0  0
  5  6  1  0  0  0
  5 12  1  0  0  0
  6  7  1  0  0  0
  6 17  1  0  0  0
  7  8  1  0  0  0
  7 18  1  0  0  0
  8  9  1  0  0  0
  8 19  1  0  0  0
  9 20  1  0  0  0
 10 11  1  0  0  0
 10 12  1  0  0  0
 10 21  2  0  0  0
 12 22  1  0  0  0
 14 28  1  0  0  0
 15 23  1  0  0  0
 16 24  1  0  0  0
 18 25  1  0  0  0
 19 26  1  0  0  0
 20 27  1  0  0  0
M  END
>  <CHROM.0>
60.45215044,64.56798850,64.65779180,-154.64104150,-105.28192750,-126.55211142
-68.98456517,-82.00559464,-166.09194339,104.89751325

>  <CHROM.1>
-5.31887176,-111.75063655,-69.28869594,63.12386737,67.72245492,140.25568816
-62.07967141,71.82922326,-169.20253156,170.34817916,-68.90846536,-1.88210996
60.03004849,-5.52672085,-0.14307806,0.16619794,-2.50750131

>  <FORMUL>
      SIA    C11 H19 N1 O9

>  <HET>
 SIA  A 467      39

>  <HETNAM>
     SIA O-SIALIC ACID

>  <Name>
SIA.pdb

>  <RI>
0

>  <Rbt.Current_Directory>
/home/malgorzata/Desktop/rDOCK_IFD/Wyniki/12_neuraminidase/IFD

>  <Rbt.Executable>
rbdock ($Id: //depot/dev/client3/rdock/2013.1/src/exe/rbdock.cxx#4 $)

>  <Rbt.Library>
libRbt.so (2013.1, Build901 2013/11/27)

>  <Rbt.Parameter_File>
/home/malgorzata/Desktop/rDock_2013.1_src/data/scripts/hard_docking.prm

>  <Rbt.Receptor>
cavity.prm

>  <SCORE>
-29.8168

>  <SCORE.INTER>
-5.81204

>  <SCORE.INTER.CONST>
1

>  <SCORE.INTER.POLAR>
-1.79391

>  <SCORE.INTER.REPUL>
0.0342003

>  <SCORE.INTER.ROT>
5

>  <SCORE.INTER.VDW>
-10.2837

>  <SCORE.INTER.norm>
-0.276764

>  <SCORE.INTRA>
-11.7883

>  <SCORE.INTRA.DIHEDRAL>
-14.7135

>  <SCORE.INTRA.DIHEDRAL.0>
24.6845

>  <SCORE.INTRA.POLAR>
0.870779

>  <SCORE.INTRA.POLAR.0>
-0.967721

>  <SCORE.INTRA.REPUL>
0.0652016

>  <SCORE.INTRA.REPUL.0>
0

>  <SCORE.INTRA.VDW>
-7.71821

>  <SCORE.INTRA.VDW.0>
7.44847

>  <SCORE.INTRA.norm>
-0.561349

>  <SCORE.RESTR>
0

>  <SCORE.RESTR.CAVITY>
0

>  <SCORE.RESTR.norm>
0

>  <SCORE.SYSTEM>
-12.2165

>  <SCORE.SYSTEM.CONST>
0

>  <SCORE.SYSTEM.DIHEDRAL>
2.8678

>  <SCORE.SYSTEM.POLAR>
-2.93712

>  <SCORE.SYSTEM.REPUL>
0.0991277

>  <SCORE.SYSTEM.VDW>
-4.15979

>  <SCORE.SYSTEM.norm>
-0.581736

>  <SCORE.heavy>
21

>  <SCORE.norm>
-1.41985

$$$$
SIA.pdb
  rDOCK(R)          3D
libRbt.so/2013.1/901 2013/11/27
 28 28  0  0  0  0  0  0  0  0999 V2000
   -5.3564   58.1803  -12.4095 C   0  0  0  0  0  0
   -5.0765   59.0015  -11.1482 C   0  0  0  0  0  0
   -5.2425   60.5059  -10.9760 C   0  0  0  0  0  0
   -5.4517   60.9154   -9.5262 C   0  0  0  0  0  0
   -4.8781   59.8948   -8.5470 C   0  0  0  0  0  0
   -5.6021   58.5599   -8.7497 C   0  0  0  0  0  0
   -4.9903   57.4450   -7.8811 C   0  0  0  0  0  0
   -5.7337   56.1163   -8.0310 C   0  0  0  0  0  0
   -7.2793   56.2019   -7.9850 C   0  0  0  0  0  0
   -4.3834   61.1249   -6.4053 C   0  0  0  0  0  0
   -5.0293   61.5928   -5.1118 C   0  0  0  0  0  0
   -5.1541   60.4465   -7.2328 N   0  0  0  0  0  0
   -5.6570   58.9083  -13.3737 O   0  0  0  0  0  0
   -5.4448   56.9570  -12.6232 O   0  0  0  0  0  0
   -3.8062   58.3570  -11.0274 O   0  0  0  0  0  0
   -4.7614   62.1282   -9.3355 O   0  0  0  0  0  0
   -5.4544   58.0928  -10.1068 O   0  0  0  0  0  0
   -3.6423   57.1852   -8.2389 O   0  0  0  0  0  0
   -5.3944   55.6700   -9.3245 O   0  0  0  0  0  0
   -7.8647   54.9143   -8.1014 O   0  0  0  0  0  0
   -3.2003   61.3193   -6.6895 O   0  0  0  0  0  0
   -6.1086   60.2988   -7.0257 H   0  0  0  0  0  0
   -3.6677   58.3211  -10.0612 H   0  0  0  0  0  0
   -4.9754   62.4316   -8.4307 H   0  0  0  0  0  0
   -3.5630   56.7326   -7.3708 H   0  0  0  0  0  0
   -5.5974   56.4270   -9.8910 H   0  0  0  0  0  0
   -7.5051   54.5039   -7.2909 H   0  0  0  0  0  0
   -5.7237   56.6469  -13.4623 H   0  0  0  0  0  0
  1 13  2  0  0  0
  1 14  1  0  0  0
  2  1  1  0  0  0
  2  3  1  0  0  0
  2 15  1  0  0  0
  2 17  1  0  0  0
  3  4  1  0  0  0
  4  5  1  0  0  0
  4 16  1  0  0  0
  5  6  1  0  0  0
  5 12  1  0  0  0
  6  7  1  0  0  0
  6 17  1  0  0  0
  7  8  1  0  0  0
  7 18  1  0  0  0
  8  9  1  0  0  0
  8 19  1  0  0  0
  9 20  1  0  0  0
 10 11  1  0  0  0
 10 12  1  0  0  0
 10 21  2  0  0  0
 12 22  1  0  0  0
 14 28  1  0  0  0
 15 23  1  0  0  0
 16 24  1  0  0  0
 18 25  1  0  0  0
 19 26  1  0  0  0
 20 27  1  0  0  0
M  END
>  <CHROM.0>
-176.68994754,65.30804633,63.28400901,-119.69850413,-101.78004575,-85.94119246
-69.20297142,-85.14549153,-164.58625194,-140.54506749

>  <CHROM.1>
172.94711164,5.24965973,-147.71069553,174.31738972,-98.77898235,177.86418346
-45.41299704,162.85417247,-178.62573382,-51.95287410,62.60465891,-5.20398726
58.68538208,-9.20059578,-2.38043443,1.25647082,1.49619584

>  <FORMUL>
      SIA    C11 H19 N1 O9

>  <HET>
 SIA  A 467      39

>  <HETNAM>
     SIA O-SIALIC ACID

>  <Name>
SIA.pdb

>  <RI>
0

>  <Rbt.Current_Directory>
/home/malgorzata/Desktop/rDOCK_IFD/Wyniki/12_neuraminidase/IFD

>  <Rbt.Executable>
rbdock ($Id: //depot/dev/client3/rdock/2013.1/src/exe/rbdock.cxx#4 $)

>  <Rbt.Library>
libRbt.so (2013.1, Build901 2013/11/27)

>  <Rbt.Parameter_File>
/home/malgorzata/Desktop/rDock_2013.1_src/data/scripts/hard_docking.prm

>  <Rbt.Receptor>
cavity.prm

>  <SCORE>
-32.6827

>  <SCORE.INTER>
-1.76883

>  <SCORE.INTER.CONST>
1

>  <SCORE.INTER.POLAR>
-0.611387

>  <SCORE.INTER.REPUL>
0.0220045

>  <SCORE.INTER.ROT>
5

>  <SCORE.INTER.VDW>
-10.2001

>  <SCORE.INTER.norm>
-0.0842299

>  <SCORE.INTRA>
-18.6289

>  <SCORE.INTRA.DIHEDRAL>
-17.9909

>  <SCORE.INTRA.DIHEDRAL.0>
24.6845

>  <SCORE.INTRA.POLAR>
-0.943368

>  <SCORE.INTRA.POLAR.0>
-0.967721

>  <SCORE.INTRA.REPUL>
0

>  <SCORE.INTRA.REPUL.0>
0

>  <SCORE.INTRA.VDW>
-6.42602

>  <SCORE.INTRA.VDW.0>
7.44847

>  <SCORE.INTRA.norm>
-0.887092

>  <SCORE.RESTR>
0

>  <SCORE.RESTR.CAVITY>
0

>  <SCORE.RESTR.norm>
0

>  <SCORE.SYSTEM>
-12.2849

>  <SCORE.SYSTEM.CONST>
0

>  <SCORE.SYSTEM.DIHEDRAL>
2.95647

>  <SCORE.SYSTEM.POLAR>
-2.90392

>  <SCORE.SYSTEM.REPUL>
0.0999548

>  <SCORE.SYSTEM.VDW>
-4.38958

>  <SCORE.SYSTEM.norm>
-0.584995

>  <SCORE.heavy>
21

>  <SCORE.norm>
-1.55632

$$$$
SIA.pdb
  rDOCK(R)          3D
libRbt.so/2013.1/901 2013/11/27
 28 28  0  0  0  0  0  0  0  0999 V2000
   -5.8374   56.4262  -11.3770 C   0  0  0  0  0  0
   -4.9461   56.0880  -10.1793 C   0  0  0  0  0  0
   -3.6613   55.2697  -10.1925 C   0  0  0  0  0  0
   -2.7404   55.5965   -9.0269 C   0  0  0  0  0  0
   -3.4974   56.1754   -7.8347 C   0  0  0  0  0  0
   -4.1641   57.4855   -8.2664 C   0  0  0  0  0  0
   -5.0513   58.0656   -7.1492 C   0  0  0  0  0  0
   -5.5190   59.4893   -7.4575 C   0  0  0  0  0  0
   -6.4676   59.6367   -8.6727 C   0  0  0  0  0  0
   -1.5868   57.3783   -6.7178 C   0  0  0  0  0  0
   -0.6929   57.3341   -5.4897 C   0  0  0  0  0  0
   -2.4780   56.4127   -6.8286 N   0  0  0  0  0  0
   -5.2642   56.1902  -12.4568 O   0  0  0  0  0  0
   -6.9495   56.9767  -11.4785 O   0  0  0  0  0  0
   -6.1049   55.6739   -9.4518 O   0  0  0  0  0  0
   -2.1507   54.3858   -8.6140 O   0  0  0  0  0  0
   -5.0621   57.2677   -9.3745 O   0  0  0  0  0  0
   -6.2282   57.2953   -6.9643 O   0  0  0  0  0  0
   -6.2613   59.8673   -6.3201 O   0  0  0  0  0  0
   -6.7247   61.0036   -8.9556 O   0  0  0  0  0  0
   -1.4954   58.2326   -7.6010 O   0  0  0  0  0  0
   -2.5740   55.7318   -6.1194 H   0  0  0  0  0  0
   -6.2663   54.7713   -9.7883 H   0  0  0  0  0  0
   -2.8841   53.7905   -8.3607 H   0  0  0  0  0  0
   -5.6432   56.6050   -6.5825 H   0  0  0  0  0  0
   -5.6035   59.8897   -5.6116 H   0  0  0  0  0  0
   -7.3450   60.8958   -9.7027 H   0  0  0  0  0  0
   -7.4151   57.2376  -10.7083 H   0  0  0  0  0  0
  1 13  2  0  0  0
  1 14  1  0  0  0
  2  1  1  0  0  0
  2  3  1  0  0  0
  2 15  1  0  0  0
  2 17  1  0  0  0
  3  4  1  0  0  0
  4  5  1  0  0  0
  4 16  1  0  0  0
  5  6  1  0  0  0
  5 12  1  0  0  0
  6  7  1  0  0  0
  6 17  1  0  0  0
  7  8  1  0  0  0
  7 18  1  0  0  0
  8  9  1  0  0  0
  8 19  1  0  0  0
  9 20  1  0  0  0
 10 11  1  0  0  0
 10 12  1  0  0  0
 10 21  2  0  0  0
 12 22  1  0  0  0
 14 28  1  0  0  0
 15 23  1  0  0  0
 16 24  1  0  0  0
 18 25  1  0  0  0
 19 26  1  0  0  0
 20 27  1  0  0  0
M  END
>  <CHROM.0>
-177.97968832,65.58295368,65.15926237,-56.08081670,106.96317934,-61.62184607
57.98986436,36.17274886,-152.99229452,120.03723810

>  <CHROM.1>
-2.79189191,-13.87802154,80.57879972,-59.13941763,77.52043765,169.51465381
65.49103265,70.93570236,-173.77057467,65.28307078,-178.00685120,-4.48367305
57.26517544,-8.58933311,-2.86801373,-0.58554471,0.81965055

>  <FORMUL>
      SIA    C11 H19 N1 O9

>  <HET>
 SIA  A 467      39

>  <HETNAM>
     SIA O-SIALIC ACID

>  <Name>
SIA.pdb

>  <RI>
0

>  <Rbt.Current_Directory>
/home/malgorzata/Desktop/rDOCK_IFD/Wyniki/12_neuraminidase/IFD

>  <Rbt.Executable>
rbdock ($Id: //depot/dev/client3/rdock/2013.1/src/exe/rbdock.cxx#4 $)

>  <Rbt.Library>
libRbt.so (2013.1, Build901 2013/11/27)

>  <Rbt.Parameter_File>
/home/malgorzata/Desktop/rDock_2013.1_src/data/scripts/hard_docking.prm

>  <Rbt.Receptor>
cavity.prm

>  <SCORE>
-31.5356

>  <SCORE.INTER>
-13.3136

>  <SCORE.INTER.CONST>
1

>  <SCORE.INTER.POLAR>
-3.03118

>  <SCORE.INTER.REPUL>
0

>  <SCORE.INTER.ROT>
5

>  <SCORE.INTER.VDW>
-13.4076

>  <SCORE.INTER.norm>
-0.633983

>  <SCORE.INTRA>
-14.9746

>  <SCORE.INTRA.DIHEDRAL>
-20.4087

>  <SCORE.INTRA.DIHEDRAL.0>
24.6845

>  <SCORE.INTRA.POLAR>
0.967721

>  <SCORE.INTRA.POLAR.0>
-0.967721

>  <SCORE.INTRA.REPUL>
0

>  <SCORE.INTRA.REPUL.0>
0

>  <SCORE.INTRA.VDW>
-8.06047

>  <SCORE.INTRA.VDW.0>
7.44847

>  <SCORE.INTRA.norm>
-0.713074

>  <SCORE.RESTR>
0

>  <SCORE.RESTR.CAVITY>
0

>  <SCORE.RESTR.norm>
0

>  <SCORE.SYSTEM>
-3.2474

>  <SCORE.SYSTEM.CONST>
0

>  <SCORE.SYSTEM.DIHEDRAL>
3.72244

>  <SCORE.SYSTEM.POLAR>
-2.2691

>  <SCORE.SYSTEM.REPUL>
1.23563

>  <SCORE.SYSTEM.VDW>
-3.57185

>  <SCORE.SYSTEM.norm>
-0.154638

>  <SCORE.heavy>
21

>  <SCORE.norm>
-1.5017

$$$$
SIA.pdb
  rDOCK(R)          3D
libRbt.so/2013.1/901 2013/11/27
 28 28  0  0  0  0  0  0  0  0999 V2000
   -2.8279   61.0826   -4.3551 C   0  0  0  0  0  0
   -3.3742   60.1332   -5.4246 C   0  0  0  0  0  0
   -3.4493   58.6135   -5.3519 C   0  0  0  0  0  0
   -4.5262   58.0311   -6.2544 C   0  0  0  0  0  0
   -4.8661   58.9542   -7.4214 C   0  0  0  0  0  0
   -5.4087   60.2731   -6.8616 C   0  0  0  0  0  0
   -5.6569   61.3041   -7.9784 C   0  0  0  0  0  0
   -6.1683   62.6395   -7.4346 C   0  0  0  0  0  0
   -5.0883   63.5893   -6.8606 C   0  0  0  0  0  0
   -6.2889   58.3799   -9.4191 C   0  0  0  0  0  0
   -7.3667   57.4176   -9.8898 C   0  0  0  0  0  0
   -5.8866   58.2436   -8.1707 N   0  0  0  0  0  0
   -3.7453   61.6478   -3.7314 O   0  0  0  0  0  0
   -1.6791   61.4689   -4.0702 O   0  0  0  0  0  0
   -2.5875   60.8104   -6.4075 O   0  0  0  0  0  0
   -4.0137   56.8334   -6.7898 O   0  0  0  0  0  0
   -4.4452   60.8995   -5.9893 O   0  0  0  0  0  0
   -4.4659   61.5985   -8.6909 O   0  0  0  0  0  0
   -6.7167   63.2881   -8.5599 O   0  0  0  0  0  0
   -4.2399   64.0768   -7.8886 O   0  0  0  0  0  0
   -5.8134   59.2728  -10.1225 O   0  0  0  0  0  0
   -6.2464   57.5209   -7.6014 H   0  0  0  0  0  0
   -1.7055   60.4043   -6.3027 H   0  0  0  0  0  0
   -3.8602   56.2330   -6.0332 H   0  0  0  0  0  0
   -4.6665   60.8048   -9.2334 H   0  0  0  0  0  0
   -7.4888   62.7503   -8.7832 H   0  0  0  0  0  0
   -3.9523   63.2256   -8.2724 H   0  0  0  0  0  0
   -0.9378   61.0938   -4.5036 H   0  0  0  0  0  0
  1 13  2  0  0  0
  1 14  1  0  0  0
  2  1  1  0  0  0
  2  3  1  0  0  0
  2 15  1  0  0  0
  2 17  1  0  0  0
  3  4  1  0  0  0
  4  5  1  0  0  0
  4 16  1  0  0  0
  5  6  1  0  0  0
  5 12  1  0  0  0
  6  7  1  0  0  0
  6 17  1  0  0  0
  7  8  1  0  0  0
  7 18  1  0  0  0
  8  9  1  0  0  0
  8 19  1  0  0  0
  9 20  1  0  0  0
 10 11  1  0  0  0
 10 12  1  0  0  0
 10 21  2  0  0  0
 12 22  1  0  0  0
 14 28  1  0  0  0
 15 23  1  0  0  0
 16 24  1  0  0  0
 18 25  1  0  0  0
 19 26  1  0  0  0
 20 27  1  0  0  0
M  END
>  <CHROM.0>
-57.70727100,174.72066574,65.90833027,-143.40703446,108.14942044,-149.68136019
-71.83048258,-83.64181668,-173.74126265,-147.06375320

>  <CHROM.1>
-6.44148025,-103.28284154,81.90634822,62.80234819,-159.83911442,-178.66168446
80.62220931,84.75548799,68.12398071,67.50919184,-54.66988960,-4.66257539
60.44830261,-7.04932943,-0.59242054,0.91032820,-3.11033565

>  <FORMUL>
      SIA    C11 H19 N1 O9

>  <HET>
 SIA  A 467      39

>  <HETNAM>
     SIA O-SIALIC ACID

>  <Name>
SIA.pdb

>  <RI>
0

>  <Rbt.Current_Directory>
/home/malgorzata/Desktop/rDOCK_IFD/Wyniki/12_neuraminidase/IFD

>  <Rbt.Executable>
rbdock ($Id: //depot/dev/client3/rdock/2013.1/src/exe/rbdock.cxx#4 $)

>  <Rbt.Library>
libRbt.so (2013.1, Build901 2013/11/27)

>  <Rbt.Parameter_File>
/home/malgorzata/Desktop/rDock_2013.1_src/data/scripts/hard_docking.prm

>  <Rbt.Receptor>
cavity.prm

>  <SCORE>
-28.8454

>  <SCORE.INTER>
-4.88383

>  <SCORE.INTER.CONST>
1

>  <SCORE.INTER.POLAR>
-2.03969

>  <SCORE.INTER.REPUL>
0.0172625

>  <SCORE.INTER.ROT>
5

>  <SCORE.INTER.VDW>
-8.4352

>  <SCORE.INTER.norm>
-0.232563

>  <SCORE.INTRA>
-18.3276

>  <SCORE.INTRA.DIHEDRAL>
-16.7509

>  <SCORE.INTRA.DIHEDRAL.0>
24.6845

>  <SCORE.INTRA.POLAR>
-0.922941

>  <SCORE.INTRA.POLAR.0>
-0.967721

>  <SCORE.INTRA.REPUL>
0

>  <SCORE.INTRA.REPUL.0>
0

>  <SCORE.INTRA.VDW>
-6.81418

>  <SCORE.INTRA.VDW.0>
7.44847

>  <SCORE.INTRA.norm>
-0.872744

>  <SCORE.RESTR>
0.331624

>  <SCORE.RESTR.CAVITY>
0.331624

>  <SCORE.RESTR.norm>
0.0157916

>  <SCORE.SYSTEM>
-5.96557

>  <SCORE.SYSTEM.CONST>
0

>  <SCORE.SYSTEM.DIHEDRAL>
2.7655

>  <SCORE.SYSTEM.POLAR>
-2.32514

>  <SCORE.SYSTEM.REPUL>
0.641528

>  <SCORE.SYSTEM.VDW>
-2.65047

>  <SCORE.SYSTEM.norm>
-0.284075

>  <SCORE.heavy>
21

>  <SCORE.norm>
-1.37359

$$$$
SIA.pdb
  rDOCK(R)          3D
libRbt.so/2013.1/901 2013/11/27
 28 28  0  0  0  0  0  0  0  0999 V2000
   -7.2391   56.1108   -8.1386 C   0  0  0  0  0  0
   -5.7428   56.4336   -8.1480 C   0  0  0  0  0  0
   -4.7686   56.2405   -9.3032 C   0  0  0  0  0  0
   -3.5583   57.1574   -9.2153 C   0  0  0  0  0  0
   -3.2736   57.6061   -7.7845 C   0  0  0  0  0  0
   -4.4800   58.3977   -7.2696 C   0  0  0  0  0  0
   -4.3179   58.7776   -5.7859 C   0  0  0  0  0  0
   -5.3648   59.7949   -5.3278 C   0  0  0  0  0  0
   -4.8549   60.8985   -4.3685 C   0  0  0  0  0  0
   -1.9617   59.7562   -7.7566 C   0  0  0  0  0  0
   -0.5505   60.3045   -7.8879 C   0  0  0  0  0  0
   -2.0977   58.4512   -7.8884 N   0  0  0  0  0  0
   -7.5258   55.2389   -8.9798 O   0  0  0  0  0  0
   -8.2119   56.6137   -7.5463 O   0  0  0  0  0  0
   -5.5993   55.7389   -6.9069 O   0  0  0  0  0  0
   -2.4461   56.4178   -9.6625 O   0  0  0  0  0  0
   -5.6805   57.5989   -7.3164 O   0  0  0  0  0  0
   -4.4675   57.6493   -4.9390 O   0  0  0  0  0  0
   -5.7621   60.4456   -6.5137 O   0  0  0  0  0  0
   -4.4090   60.3412   -3.1417 O   0  0  0  0  0  0
   -2.9553   60.4604   -7.5695 O   0  0  0  0  0  0
   -1.3077   57.8731   -8.0210 H   0  0  0  0  0  0
   -5.6608   56.4543   -6.2448 H   0  0  0  0  0  0
   -2.5818   56.2606  -10.6182 H   0  0  0  0  0  0
   -3.4895   57.5674   -4.9771 H   0  0  0  0  0  0
   -4.9343   60.7879   -6.8782 H   0  0  0  0  0  0
   -5.2227   59.8689   -2.8783 H   0  0  0  0  0  0
   -9.0827   56.3417   -7.7606 H   0  0  0  0  0  0
  1 13  2  0  0  0
  1 14  1  0  0  0
  2  1  1  0  0  0
  2  3  1  0  0  0
  2 15  1  0  0  0
  2 17  1  0  0  0
  3  4  1  0  0  0
  4  5  1  0  0  0
  4 16  1  0  0  0
  5  6  1  0  0  0
  5 12  1  0  0  0
  6  7  1  0  0  0
  6 17  1  0  0  0
  7  8  1  0  0  0
  7 18  1  0  0  0
  8  9  1  0  0  0
  8 19  1  0  0  0
  9 20  1  0  0  0
 10 11  1  0  0  0
 10 12  1  0  0  0
 10 21  2  0  0  0
 12 22  1  0  0  0
 14 28  1  0  0  0
 15 23  1  0  0  0
 16 24  1  0  0  0
 18 25  1  0  0  0
 19 26  1  0  0  0
 20 27  1  0  0  0
M  END
>  <CHROM.0>
-55.56025490,64.56513719,68.69765682,19.28294374,-102.50148164,-153.27997082
59.88662130,-83.41818115,-32.94096433,-137.00926613

>  <CHROM.1>
171.84524332,24.24094780,-95.35792062,67.71807263,108.91054117,168.62364938
-140.41454026,94.30065409,-63.66016136,-56.26115163,-56.40884992,-4.56196312
58.11099026,-7.17559597,2.20798433,-0.42927063,-2.30067678

>  <FORMUL>
      SIA    C11 H19 N1 O9

>  <HET>
 SIA  A 467      39

>  <HETNAM>
     SIA O-SIALIC ACID

>  <Name>
SIA.pdb

>  <RI>
0

>  <Rbt.Current_Directory>
/home/malgorzata/Desktop/rDOCK_IFD/Wyniki/12_neuraminidase/IFD

>  <Rbt.Executable>
rbdock ($Id: //depot/dev/client3/rdock/2013.1/src/exe/rbdock.cxx#4 $)

>  <Rbt.Library>
libRbt.so (2013.1, Build901 2013/11/27)

>  <Rbt.Parameter_File>
/home/malgorzata/Desktop/rDock_2013.1_src/data/scripts/hard_docking.prm

>  <Rbt.Receptor>
cavity.prm

>  <SCORE>
-38.404

>  <SCORE.INTER>
-21.8033

>  <SCORE.INTER.CONST>
1

>  <SCORE.INTER.POLAR>
-5.37968

>  <SCORE.INTER.REPUL>
0

>  <SCORE.INTER.ROT>
5

>  <SCORE.INTER.VDW>
-13.9124

>  <SCORE.INTER.norm>
-1.03825

>  <SCORE.INTRA>
-11.6945

>  <SCORE.INTRA.DIHEDRAL>
-6.53842

>  <SCORE.INTRA.DIHEDRAL.0>
24.6845

>  <SCORE.INTRA.POLAR>
-0.713719

>  <SCORE.INTRA.POLAR.0>
-0.967721

>  <SCORE.INTRA.REPUL>
0

>  <SCORE.INTRA.REPUL.0>
0

>  <SCORE.INTRA.VDW>
-5.99861

>  <SCORE.INTRA.VDW.0>
7.44847

>  <SCORE.INTRA.norm>
-0.556879

>  <SCORE.RESTR>
0

>  <SCORE.RESTR.CAVITY>
0

>  <SCORE.RESTR.norm>
0

>  <SCORE.SYSTEM>
-4.90617

>  <SCORE.SYSTEM.CONST>
0

>  <SCORE.SYSTEM.DIHEDRAL>
4.30585

>  <SCORE.SYSTEM.POLAR>
-1.59662

>  <SCORE.SYSTEM.REPUL>
0.198056

>  <SCORE.SYSTEM.VDW>
-2.62087

>  <SCORE.SYSTEM.norm>
-0.233627

>  <SCORE.heavy>
21

>  <SCORE.norm>
-1.82876

$$$$
SIA.pdb
  rDOCK(R)          3D
libRbt.so/2013.1/901 2013/11/27
 28 28  0  0  0  0  0  0  0  0999 V2000
   -3.6825   61.2852  -10.1668 C   0  0  0  0  0  0
   -4.7376   61.5028  -11.2544 C   0  0  0  0  0  0
   -6.0317   62.2972  -11.1329 C   0  0  0  0  0  0
   -6.5421   62.8042  -12.4730 C   0  0  0  0  0  0
   -6.0401   61.9603  -13.6415 C   0  0  0  0  0  0
   -4.5105   62.0375  -13.6806 C   0  0  0  0  0  0
   -3.9229   61.1086  -14.7594 C   0  0  0  0  0  0
   -3.4507   61.8772  -15.9951 C   0  0  0  0  0  0
   -2.9568   61.0090  -17.1785 C   0  0  0  0  0  0
   -7.8280   62.4469  -15.3477 C   0  0  0  0  0  0
   -8.1160   63.2889  -16.5795 C   0  0  0  0  0  0
   -6.6262   62.5731  -14.8198 N   0  0  0  0  0  0
   -4.0315   61.7866   -9.0820 O   0  0  0  0  0  0
   -2.5305   60.8132  -10.1845 O   0  0  0  0  0  0
   -4.7285   60.0991  -11.5245 O   0  0  0  0  0  0
   -7.9469   62.7054  -12.4446 O   0  0  0  0  0  0
   -3.9375   61.5715  -12.4412 O   0  0  0  0  0  0
   -2.7911   60.4011  -14.2787 O   0  0  0  0  0  0
   -4.6019   62.5544  -16.4465 O   0  0  0  0  0  0
   -2.4430   61.8187  -18.2249 O   0  0  0  0  0  0
   -8.6332   61.6540  -14.8565 O   0  0  0  0  0  0
   -5.9773   63.2179  -15.1927 H   0  0  0  0  0  0
   -5.2570   60.0281  -12.3428 H   0  0  0  0  0  0
   -8.2639   63.4098  -11.8448 H   0  0  0  0  0  0
   -2.9389   59.7795  -15.0247 H   0  0  0  0  0  0
   -5.2082   61.8418  -16.6913 H   0  0  0  0  0  0
   -1.7028   62.2416  -17.7478 H   0  0  0  0  0  0
   -2.1818   60.4581  -10.9785 H   0  0  0  0  0  0
  1 13  2  0  0  0
  1 14  1  0  0  0
  2  1  1  0  0  0
  2  3  1  0  0  0
  2 15  1  0  0  0
  2 17  1  0  0  0
  3  4  1  0  0  0
  4  5  1  0  0  0
  4 16  1  0  0  0
  5  6  1  0  0  0
  5 12  1  0  0  0
  6  7  1  0  0  0
  6 17  1  0  0  0
  7  8  1  0  0  0
  7 18  1  0  0  0
  8  9  1  0  0  0
  8 19  1  0  0  0
  9 20  1  0  0  0
 10 11  1  0  0  0
 10 12  1  0  0  0
 10 21  2  0  0  0
 12 22  1  0  0  0
 14 28  1  0  0  0
 15 23  1  0  0  0
 16 24  1  0  0  0
 18 25  1  0  0  0
 19 26  1  0  0  0
 20 27  1  0  0  0
M  END
>  <CHROM.0>
62.83722878,-179.34401021,63.78503269,-73.32621541,106.45468429,-68.56126219
-73.79155291,30.29160366,-172.13107433,107.13137712

>  <CHROM.1>
-3.78975081,3.84991163,-170.27735736,72.52571421,-81.61675457,104.41238441
-174.99598180,161.28651360,-175.25319319,-63.58552823,62.01934953,-5.02033677
61.77087104,-13.66544763,-1.43211180,0.28552688,-1.49234031

>  <FORMUL>
      SIA    C11 H19 N1 O9

>  <HET>
 SIA  A 467      39

>  <HETNAM>
     SIA O-SIALIC ACID

>  <Name>
SIA.pdb

>  <RI>
0

>  <Rbt.Current_Directory>
/home/malgorzata/Desktop/rDOCK_IFD/Wyniki/12_neuraminidase/IFD

>  <Rbt.Executable>
rbdock ($Id: //depot/dev/client3/rdock/2013.1/src/exe/rbdock.cxx#4 $)

>  <Rbt.Library>
libRbt.so (2013.1, Build901 2013/11/27)

>  <Rbt.Parameter_File>
/home/malgorzata/Desktop/rDock_2013.1_src/data/scripts/hard_docking.prm

>  <Rbt.Receptor>
cavity.prm

>  <SCORE>
-14.5507

>  <SCORE.INTER>
2.02001

>  <SCORE.INTER.CONST>
1

>  <SCORE.INTER.POLAR>
-0.545359

>  <SCORE.INTER.REPUL>
0.0120496

>  <SCORE.INTER.ROT>
5

>  <SCORE.INTER.VDW>
-6.58601

>  <SCORE.INTER.norm>
0.0961911

>  <SCORE.INTRA>
-12.5643

>  <SCORE.INTRA.DIHEDRAL>
-15.4625

>  <SCORE.INTRA.DIHEDRAL.0>
24.6845

>  <SCORE.INTRA.POLAR>
0.612689

>  <SCORE.INTRA.POLAR.0>
-0.967721

>  <SCORE.INTRA.REPUL>
0

>  <SCORE.INTRA.REPUL.0>
0

>  <SCORE.INTRA.VDW>
-6.91624

>  <SCORE.INTRA.VDW.0>
7.44847

>  <SCORE.INTRA.norm>
-0.598302

>  <SCORE.RESTR>
0

>  <SCORE.RESTR.CAVITY>
0

>  <SCORE.RESTR.norm>
0

>  <SCORE.SYSTEM>
-4.0064

>  <SCORE.SYSTEM.CONST>
0

>  <SCORE.SYSTEM.DIHEDRAL>
2.59117

>  <SCORE.SYSTEM.POLAR>
-2.2938

>  <SCORE.SYSTEM.REPUL>
1.18848

>  <SCORE.SYSTEM.VDW>
-3.44551

>  <SCORE.SYSTEM.norm>
-0.190781

>  <SCORE.heavy>
21

>  <SCORE.norm>
-0.692892

$$$$
