FLP.pdb
  rDOCK(R)          3D
libRbt.so/2013.1/901 2013/11/27
 19 20  0  0  0  0  0  0  0  0999 V2000
   21.1810   14.8154   14.9089 C   0  0  0  0  0  0
   20.9362   16.2009   15.0328 C   0  0  0  0  0  0
   19.9941   16.6609   15.9472 C   0  0  0  0  0  0
   19.3008   15.7388   16.7333 C   0  0  0  0  0  0
   19.5511   14.3592   16.6046 C   0  0  0  0  0  0
   20.4935   13.9022   15.6892 C   0  0  0  0  0  0
   19.6940   18.1395   16.0706 C   0  0  0  0  0  0
   18.5864   18.7247   15.4104 C   0  0  0  0  0  0
   18.3209   20.1195   15.5664 C   0  0  0  0  0  0
   19.1870   20.9124   16.3955 C   0  0  0  0  0  0
   20.2654   20.3203   17.0417 C   0  0  0  0  0  0
   20.5286   18.9557   16.8861 C   0  0  0  0  0  0
   19.0086   22.4122   16.5126 C   0  0  0  0  0  0
   20.3233   23.1339   16.2257 C   0  0  0  0  0  0
   18.5331   22.7213   17.9317 C   0  0  0  0  0  0
   18.3898   21.8310   18.7329 O   0  0  0  0  0  0
   18.2463   23.9459   18.2866 O   0  0  0  0  0  0
   21.6073   18.4174   17.5147 F   0  0  0  0  0  0
   18.0452   24.1395   19.1811 H   0  0  0  0  0  0
  1  2  2  0  0  0
  2  3  1  0  0  0
  3  7  1  0  0  0
  4  3  2  0  0  0
  5  4  1  0  0  0
  6  5  2  0  0  0
  6  1  1  0  0  0
  7  8  2  0  0  0
  7 12  1  0  0  0
  8  9  1  0  0  0
  9 10  2  0  0  0
 10 13  1  0  0  0
 11 10  1  0  0  0
 12 11  2  0  0  0
 13 14  1  0  0  0
 15 17  1  0  0  0
 15 13  1  0  0  0
 16 15  2  0  0  0
 17 19  1  0  0  0
 18 12  1  0  0  0
M  END
>  <CHROM.0>
-174.08902859,179.82823283,-73.41799028,-48.44938812,12.80345497,-60.91382613
-57.41585989

>  <CHROM.1>
97.35584450,-127.62144102,-173.39391976,1.28743708,19.68946828,19.08939465
16.60583923,-1.35646666,0.47783458,0.11897838

>  <FORMUL>
      FLP    C15 H13 F1 O2

>  <HET>
 FLP  A 701      18

>  <HETNAM>
     FLP FLURBIPROFEN

>  <Name>
FLP.pdb

>  <RI>
4.31221e+07

>  <Rbt.Current_Directory>
/home/malgorzata/Desktop/rDOCK_IFD/Wyniki/4_COX2/IFD

>  <Rbt.Executable>
rbdock ($Id: //depot/dev/client3/rdock/2013.1/src/exe/rbdock.cxx#4 $)

>  <Rbt.Library>
libRbt.so (2013.1, Build901 2013/11/27)

>  <Rbt.Parameter_File>
/home/malgorzata/Desktop/rDock_2013.1_src/data/scripts/dock.prm

>  <Rbt.Receptor>
cavity.prm

>  <SCORE>
-23.4873

>  <SCORE.INTER>
-14.2638

>  <SCORE.INTER.CONST>
1

>  <SCORE.INTER.POLAR>
-0.182226

>  <SCORE.INTER.REPUL>
0

>  <SCORE.INTER.ROT>
3

>  <SCORE.INTER.VDW>
-22.0442

>  <SCORE.INTER.norm>
-0.792431

>  <SCORE.INTRA>
-0.137939

>  <SCORE.INTRA.DIHEDRAL>
1.10637

>  <SCORE.INTRA.DIHEDRAL.0>
5.47211

>  <SCORE.INTRA.POLAR>
0

>  <SCORE.INTRA.POLAR.0>
0

>  <SCORE.INTRA.REPUL>
0

>  <SCORE.INTRA.REPUL.0>
0

>  <SCORE.INTRA.VDW>
-0.691125

>  <SCORE.INTRA.VDW.0>
0.722234

>  <SCORE.INTRA.norm>
-0.0076633

>  <SCORE.RESTR>
0

>  <SCORE.RESTR.CAVITY>
0

>  <SCORE.RESTR.norm>
0

>  <SCORE.SYSTEM>
-9.08558

>  <SCORE.SYSTEM.CONST>
0

>  <SCORE.SYSTEM.DIHEDRAL>
1.53877

>  <SCORE.SYSTEM.POLAR>
-2.82556

>  <SCORE.SYSTEM.VDW>
-0.248054

>  <SCORE.SYSTEM.norm>
-0.504755

>  <SCORE.heavy>
18

>  <SCORE.norm>
-1.30485

$$$$
FLP.pdb
  rDOCK(R)          3D
libRbt.so/2013.1/901 2013/11/27
 19 20  0  0  0  0  0  0  0  0999 V2000
   19.0751   24.0609   16.0514 C   0  0  0  0  0  0
   19.2301   22.7006   15.7044 C   0  0  0  0  0  0
   18.9965   21.7105   16.6533 C   0  0  0  0  0  0
   18.6096   22.0803   17.9427 C   0  0  0  0  0  0
   18.4563   23.4385   18.2807 C   0  0  0  0  0  0
   18.6910   24.4263   17.3298 C   0  0  0  0  0  0
   19.1899   20.2490   16.3096 C   0  0  0  0  0  0
   19.7177   19.3335   17.2521 C   0  0  0  0  0  0
   19.8666   17.9571   16.9005 C   0  0  0  0  0  0
   19.4766   17.5198   15.5878 C   0  0  0  0  0  0
   18.9538   18.4306   14.6777 C   0  0  0  0  0  0
   18.8117   19.7791   15.0196 C   0  0  0  0  0  0
   19.7079   16.0938   15.1318 C   0  0  0  0  0  0
   19.2882   15.1072   16.2190 C   0  0  0  0  0  0
   21.1949   15.9346   14.8170 C   0  0  0  0  0  0
   21.5572   15.7078   13.6891 O   0  0  0  0  0  0
   22.0891   16.0108   15.7670 O   0  0  0  0  0  0
   18.3192   20.6447   14.0940 F   0  0  0  0  0  0
   22.9950   15.8752   15.5696 H   0  0  0  0  0  0
  1  2  2  0  0  0
  2  3  1  0  0  0
  3  7  1  0  0  0
  4  3  2  0  0  0
  5  4  1  0  0  0
  6  5  2  0  0  0
  6  1  1  0  0  0
  7  8  2  0  0  0
  7 12  1  0  0  0
  8  9  1  0  0  0
  9 10  2  0  0  0
 10 13  1  0  0  0
 11 10  1  0  0  0
 12 11  2  0  0  0
 13 14  1  0  0  0
 15 17  1  0  0  0
 15 13  1  0  0  0
 16 15  2  0  0  0
 17 19  1  0  0  0
 18 12  1  0  0  0
M  END
>  <CHROM.0>
141.09925738,-51.78548917,-71.75261624,150.73830698,-173.14842246,-58.89765937
-58.65107567

>  <CHROM.1>
142.92642868,45.35259483,177.36602761,-115.12060318,19.55211894,19.40733685
15.89847230,2.67250723,-1.28116435,1.31877003

>  <FORMUL>
      FLP    C15 H13 F1 O2

>  <HET>
 FLP  A 701      18

>  <HETNAM>
     FLP FLURBIPROFEN

>  <Name>
FLP.pdb

>  <RI>
4.31221e+07

>  <Rbt.Current_Directory>
/home/malgorzata/Desktop/rDOCK_IFD/Wyniki/4_COX2/IFD

>  <Rbt.Executable>
rbdock ($Id: //depot/dev/client3/rdock/2013.1/src/exe/rbdock.cxx#4 $)

>  <Rbt.Library>
libRbt.so (2013.1, Build901 2013/11/27)

>  <Rbt.Parameter_File>
/home/malgorzata/Desktop/rDock_2013.1_src/data/scripts/dock.prm

>  <Rbt.Receptor>
cavity.prm

>  <SCORE>
-23.0919

>  <SCORE.INTER>
-12.9004

>  <SCORE.INTER.CONST>
1

>  <SCORE.INTER.POLAR>
-0.932759

>  <SCORE.INTER.REPUL>
0

>  <SCORE.INTER.ROT>
3

>  <SCORE.INTER.VDW>
-18.1291

>  <SCORE.INTER.norm>
-0.716691

>  <SCORE.INTRA>
-1.9482

>  <SCORE.INTRA.DIHEDRAL>
-2.12246

>  <SCORE.INTRA.DIHEDRAL.0>
5.47211

>  <SCORE.INTRA.POLAR>
0

>  <SCORE.INTRA.POLAR.0>
0

>  <SCORE.INTRA.REPUL>
0

>  <SCORE.INTRA.REPUL.0>
0

>  <SCORE.INTRA.VDW>
-0.886967

>  <SCORE.INTRA.VDW.0>
0.722234

>  <SCORE.INTRA.norm>
-0.108233

>  <SCORE.RESTR>
0

>  <SCORE.RESTR.CAVITY>
0

>  <SCORE.RESTR.norm>
0

>  <SCORE.SYSTEM>
-8.24331

>  <SCORE.SYSTEM.CONST>
0

>  <SCORE.SYSTEM.DIHEDRAL>
6.07345

>  <SCORE.SYSTEM.POLAR>
-2.80472

>  <SCORE.SYSTEM.REPUL>
0.00897559

>  <SCORE.SYSTEM.VDW>
-1.78887

>  <SCORE.SYSTEM.norm>
-0.457962

>  <SCORE.heavy>
18

>  <SCORE.norm>
-1.28289

$$$$
FLP.pdb
  rDOCK(R)          3D
libRbt.so/2013.1/901 2013/11/27
 19 20  0  0  0  0  0  0  0  0999 V2000
   20.5426   15.0568   14.6572 C   0  0  0  0  0  0
   20.3856   16.4579   14.7411 C   0  0  0  0  0  0
   19.6709   17.0150   15.7967 C   0  0  0  0  0  0
   19.1166   16.1739   16.7632 C   0  0  0  0  0  0
   19.2783   14.7781   16.6732 C   0  0  0  0  0  0
   19.9931   14.2239   15.6163 C   0  0  0  0  0  0
   19.4635   18.5119   15.8853 C   0  0  0  0  0  0
   19.9796   19.2651   16.9677 C   0  0  0  0  0  0
   19.7831   20.6793   17.0079 C   0  0  0  0  0  0
   19.0603   21.3200   15.9433 C   0  0  0  0  0  0
   18.5668   20.5665   14.8852 C   0  0  0  0  0  0
   18.7549   19.1813   14.8471 C   0  0  0  0  0  0
   18.7380   22.7996   15.9895 C   0  0  0  0  0  0
   20.0174   23.6249   16.1054 C   0  0  0  0  0  0
   17.8356   23.0482   17.1975 C   0  0  0  0  0  0
   16.8458   23.7289   17.0879 O   0  0  0  0  0  0
   18.1389   22.5545   18.3689 O   0  0  0  0  0  0
   18.2362   18.4747   13.8078 F   0  0  0  0  0  0
   17.5828   22.7189   19.1049 H   0  0  0  0  0  0
  1  2  2  0  0  0
  2  3  1  0  0  0
  3  7  1  0  0  0
  4  3  2  0  0  0
  5  4  1  0  0  0
  6  5  2  0  0  0
  6  1  1  0  0  0
  7  8  2  0  0  0
  7 12  1  0  0  0
  8  9  1  0  0  0
  9 10  2  0  0  0
 10 13  1  0  0  0
 11 10  1  0  0  0
 12 11  2  0  0  0
 13 14  1  0  0  0
 15 17  1  0  0  0
 15 13  1  0  0  0
 16 15  2  0  0  0
 17 19  1  0  0  0
 18 12  1  0  0  0
M  END
>  <CHROM.0>
-20.80255330,-176.85420121,-71.82065432,-75.96450386,179.04373777,-60.59348075
-59.30148459

>  <CHROM.1>
-117.57989864,58.35849516,179.47334568,-133.68528571,19.07624978,19.41596682
16.02174994,0.02275481,1.38116618,-1.40970194

>  <FORMUL>
      FLP    C15 H13 F1 O2

>  <HET>
 FLP  A 701      18

>  <HETNAM>
     FLP FLURBIPROFEN

>  <Name>
FLP.pdb

>  <RI>
4.31221e+07

>  <Rbt.Current_Directory>
/home/malgorzata/Desktop/rDOCK_IFD/Wyniki/4_COX2/IFD

>  <Rbt.Executable>
rbdock ($Id: //depot/dev/client3/rdock/2013.1/src/exe/rbdock.cxx#4 $)

>  <Rbt.Library>
libRbt.so (2013.1, Build901 2013/11/27)

>  <Rbt.Parameter_File>
/home/malgorzata/Desktop/rDock_2013.1_src/data/scripts/dock.prm

>  <Rbt.Receptor>
cavity.prm

>  <SCORE>
-28.8342

>  <SCORE.INTER>
-17.4819

>  <SCORE.INTER.CONST>
1

>  <SCORE.INTER.POLAR>
-1.53954

>  <SCORE.INTER.REPUL>
0

>  <SCORE.INTER.ROT>
3

>  <SCORE.INTER.VDW>
-20.6474

>  <SCORE.INTER.norm>
-0.971215

>  <SCORE.INTRA>
-1.80466

>  <SCORE.INTRA.DIHEDRAL>
0.0563252

>  <SCORE.INTRA.DIHEDRAL.0>
5.47211

>  <SCORE.INTRA.POLAR>
0

>  <SCORE.INTRA.POLAR.0>
0

>  <SCORE.INTRA.REPUL>
0

>  <SCORE.INTRA.REPUL.0>
0

>  <SCORE.INTRA.VDW>
-1.83282

>  <SCORE.INTRA.VDW.0>
0.722234

>  <SCORE.INTRA.norm>
-0.100259

>  <SCORE.RESTR>
0

>  <SCORE.RESTR.CAVITY>
0

>  <SCORE.RESTR.norm>
0

>  <SCORE.SYSTEM>
-9.54766

>  <SCORE.SYSTEM.CONST>
0

>  <SCORE.SYSTEM.DIHEDRAL>
1.75202

>  <SCORE.SYSTEM.POLAR>
-2.78765

>  <SCORE.SYSTEM.VDW>
-0.945656

>  <SCORE.SYSTEM.norm>
-0.530426

>  <SCORE.heavy>
18

>  <SCORE.norm>
-1.6019

$$$$
FLP.pdb
  rDOCK(R)          3D
libRbt.so/2013.1/901 2013/11/27
 19 20  0  0  0  0  0  0  0  0999 V2000
   18.5466   23.5438   18.0251 C   0  0  0  0  0  0
   18.9894   22.2062   17.9272 C   0  0  0  0  0  0
   19.1758   21.6258   16.6767 C   0  0  0  0  0  0
   18.9205   22.3805   15.5304 C   0  0  0  0  0  0
   18.4802   23.7137   15.6362 C   0  0  0  0  0  0
   18.2943   24.2913   16.8880 C   0  0  0  0  0  0
   19.6175   20.1833   16.5519 C   0  0  0  0  0  0
   20.7324   19.6886   17.2713 C   0  0  0  0  0  0
   21.1080   18.3162   17.1457 C   0  0  0  0  0  0
   20.3445   17.4534   16.2860 C   0  0  0  0  0  0
   19.2491   17.9539   15.5928 C   0  0  0  0  0  0
   18.8832   19.2984   15.7118 C   0  0  0  0  0  0
   20.7613   16.0178   16.0403 C   0  0  0  0  0  0
   20.9798   15.7692   14.5497 C   0  0  0  0  0  0
   19.6550   15.1078   16.5728 C   0  0  0  0  0  0
   18.6750   15.5814   17.0926 O   0  0  0  0  0  0
   19.7690   13.8079   16.5008 O   0  0  0  0  0  0
   17.8203   19.7571   14.9989 F   0  0  0  0  0  0
   20.5337   13.4251   16.1179 H   0  0  0  0  0  0
  1  2  2  0  0  0
  2  3  1  0  0  0
  3  7  1  0  0  0
  4  3  2  0  0  0
  5  4  1  0  0  0
  6  5  2  0  0  0
  6  1  1  0  0  0
  7  8  2  0  0  0
  7 12  1  0  0  0
  8  9  1  0  0  0
  9 10  2  0  0  0
 10 13  1  0  0  0
 11 10  1  0  0  0
 12 11  2  0  0  0
 13 14  1  0  0  0
 15 17  1  0  0  0
 15 13  1  0  0  0
 16 15  2  0  0  0
 17 19  1  0  0  0
 18 12  1  0  0  0
M  END
>  <CHROM.0>
8.05531032,-47.62350116,-74.74788412,-56.38522294,20.32224821,-59.38160526
-58.83393900

>  <CHROM.1>
-50.04002092,-121.90268024,-0.15353523,-0.76755368,19.41464464,19.11955899
16.34900690,-1.91011869,1.02427380,-2.77910199

>  <FORMUL>
      FLP    C15 H13 F1 O2

>  <HET>
 FLP  A 701      18

>  <HETNAM>
     FLP FLURBIPROFEN

>  <Name>
FLP.pdb

>  <RI>
4.31221e+07

>  <Rbt.Current_Directory>
/home/malgorzata/Desktop/rDOCK_IFD/Wyniki/4_COX2/IFD

>  <Rbt.Executable>
rbdock ($Id: //depot/dev/client3/rdock/2013.1/src/exe/rbdock.cxx#4 $)

>  <Rbt.Library>
libRbt.so (2013.1, Build901 2013/11/27)

>  <Rbt.Parameter_File>
/home/malgorzata/Desktop/rDock_2013.1_src/data/scripts/dock.prm

>  <Rbt.Receptor>
cavity.prm

>  <SCORE>
-23.4402

>  <SCORE.INTER>
-14.5049

>  <SCORE.INTER.CONST>
1

>  <SCORE.INTER.POLAR>
0

>  <SCORE.INTER.REPUL>
0

>  <SCORE.INTER.ROT>
3

>  <SCORE.INTER.VDW>
-22.9049

>  <SCORE.INTER.norm>
-0.805828

>  <SCORE.INTRA>
-0.874288

>  <SCORE.INTRA.DIHEDRAL>
-1.16463

>  <SCORE.INTRA.DIHEDRAL.0>
5.47211

>  <SCORE.INTRA.POLAR>
0

>  <SCORE.INTRA.POLAR.0>
0

>  <SCORE.INTRA.REPUL>
0

>  <SCORE.INTRA.REPUL.0>
0

>  <SCORE.INTRA.VDW>
-0.291975

>  <SCORE.INTRA.VDW.0>
0.722234

>  <SCORE.INTRA.norm>
-0.0485716

>  <SCORE.RESTR>
0.00348949

>  <SCORE.RESTR.CAVITY>
0.00348949

>  <SCORE.RESTR.norm>
0.000193861

>  <SCORE.SYSTEM>
-8.06453

>  <SCORE.SYSTEM.CONST>
0

>  <SCORE.SYSTEM.DIHEDRAL>
4.68456

>  <SCORE.SYSTEM.POLAR>
-2.83011

>  <SCORE.SYSTEM.VDW>
-0.784441

>  <SCORE.SYSTEM.norm>
-0.44803

>  <SCORE.heavy>
18

>  <SCORE.norm>
-1.30224

$$$$
FLP.pdb
  rDOCK(R)          3D
libRbt.so/2013.1/901 2013/11/27
 19 20  0  0  0  0  0  0  0  0999 V2000
   24.1020   16.1700   19.1665 C   0  0  0  0  0  0
   23.2929   17.2996   18.9131 C   0  0  0  0  0  0
   22.4501   17.3163   17.8064 C   0  0  0  0  0  0
   22.4174   16.2082   16.9581 C   0  0  0  0  0  0
   23.2264   15.0854   17.2179 C   0  0  0  0  0  0
   24.0684   15.0717   18.3251 C   0  0  0  0  0  0
   21.6005   18.5312   17.4998 C   0  0  0  0  0  0
   21.9526   19.8168   17.9776 C   0  0  0  0  0  0
   21.1390   20.9445   17.6510 C   0  0  0  0  0  0
   19.9685   20.7561   16.8379 C   0  0  0  0  0  0
   19.6418   19.4884   16.3717 C   0  0  0  0  0  0
   20.4353   18.3832   16.6946 C   0  0  0  0  0  0
   19.0189   21.9002   16.5479 C   0  0  0  0  0  0
   19.7938   23.1540   16.1494 C   0  0  0  0  0  0
   18.1979   22.1632   17.8098 C   0  0  0  0  0  0
   17.5985   23.2018   17.9404 O   0  0  0  0  0  0
   18.1591   21.2831   18.7751 O   0  0  0  0  0  0
   20.0698   17.1550   16.2402 F   0  0  0  0  0  0
   18.6014   20.4626   18.6791 H   0  0  0  0  0  0
  1  2  2  0  0  0
  2  3  1  0  0  0
  3  7  1  0  0  0
  4  3  2  0  0  0
  5  4  1  0  0  0
  6  5  2  0  0  0
  6  1  1  0  0  0
  7  8  2  0  0  0
  7 12  1  0  0  0
  8  9  1  0  0  0
  9 10  2  0  0  0
 10 13  1  0  0  0
 11 10  1  0  0  0
 12 11  2  0  0  0
 13 14  1  0  0  0
 15 17  1  0  0  0
 15 13  1  0  0  0
 16 15  2  0  0  0
 17 19  1  0  0  0
 18 12  1  0  0  0
M  END
>  <CHROM.0>
-177.02443464,175.22945871,-72.83599815,-97.37453435,-175.24469795,-172.36998689
-58.61830226

>  <CHROM.1>
23.29760404,45.93411517,-3.15890469,162.99314884,20.84466383,19.16821258
17.48107085,-0.74811997,-0.64236375,0.48407665

>  <FORMUL>
      FLP    C15 H13 F1 O2

>  <HET>
 FLP  A 701      18

>  <HETNAM>
     FLP FLURBIPROFEN

>  <Name>
FLP.pdb

>  <RI>
4.31221e+07

>  <Rbt.Current_Directory>
/home/malgorzata/Desktop/rDOCK_IFD/Wyniki/4_COX2/IFD

>  <Rbt.Executable>
rbdock ($Id: //depot/dev/client3/rdock/2013.1/src/exe/rbdock.cxx#4 $)

>  <Rbt.Library>
libRbt.so (2013.1, Build901 2013/11/27)

>  <Rbt.Parameter_File>
/home/malgorzata/Desktop/rDock_2013.1_src/data/scripts/dock.prm

>  <Rbt.Receptor>
cavity.prm

>  <SCORE>
-24.2045

>  <SCORE.INTER>
-15.2501

>  <SCORE.INTER.CONST>
1

>  <SCORE.INTER.POLAR>
-0.8

>  <SCORE.INTER.REPUL>
0

>  <SCORE.INTER.ROT>
3

>  <SCORE.INTER.VDW>
-20.9301

>  <SCORE.INTER.norm>
-0.847225

>  <SCORE.INTRA>
0.090218

>  <SCORE.INTRA.DIHEDRAL>
-1.76938

>  <SCORE.INTRA.DIHEDRAL.0>
5.47211

>  <SCORE.INTRA.POLAR>
0

>  <SCORE.INTRA.POLAR.0>
0

>  <SCORE.INTRA.REPUL>
0

>  <SCORE.INTRA.REPUL.0>
0

>  <SCORE.INTRA.VDW>
0.97491

>  <SCORE.INTRA.VDW.0>
0.722234

>  <SCORE.INTRA.norm>
0.00501211

>  <SCORE.RESTR>
0

>  <SCORE.RESTR.CAVITY>
0

>  <SCORE.RESTR.norm>
0

>  <SCORE.SYSTEM>
-9.04463

>  <SCORE.SYSTEM.CONST>
0

>  <SCORE.SYSTEM.DIHEDRAL>
1.57382

>  <SCORE.SYSTEM.POLAR>
-2.70645

>  <SCORE.SYSTEM.REPUL>
0.0627214

>  <SCORE.SYSTEM.VDW>
-0.9432

>  <SCORE.SYSTEM.norm>
-0.502479

>  <SCORE.heavy>
18

>  <SCORE.norm>
-1.34469

$$$$
FLP.pdb
  rDOCK(R)          3D
libRbt.so/2013.1/901 2013/11/27
 19 20  0  0  0  0  0  0  0  0999 V2000
   25.1471   23.9022    9.7948 C   0  0  0  0  0  0
   25.8439   23.7456   11.0133 C   0  0  0  0  0  0
   25.1766   23.2752   12.1398 C   0  0  0  0  0  0
   23.8191   22.9633   12.0468 C   0  0  0  0  0  0
   23.1316   23.1212   10.8282 C   0  0  0  0  0  0
   23.8014   23.5921    9.7036 C   0  0  0  0  0  0
   25.8984   23.1326   13.4628 C   0  0  0  0  0  0
   26.9604   23.9982   13.8203 C   0  0  0  0  0  0
   27.6049   23.8482   15.0862 C   0  0  0  0  0  0
   27.1634   22.8149   15.9827 C   0  0  0  0  0  0
   26.1149   21.9788   15.6185 C   0  0  0  0  0  0
   25.4862   22.1222   14.3777 C   0  0  0  0  0  0
   27.8786   22.5497   17.2916 C   0  0  0  0  0  0
   28.8606   21.3901   17.1421 C   0  0  0  0  0  0
   26.8238   22.2184   18.3467 C   0  0  0  0  0  0
   26.8155   21.1365   18.8801 O   0  0  0  0  0  0
   25.9007   23.0879   18.6622 O   0  0  0  0  0  0
   24.4802   21.2694   14.0468 F   0  0  0  0  0  0
   25.2277   22.8564   19.2717 H   0  0  0  0  0  0
  1  2  2  0  0  0
  2  3  1  0  0  0
  3  7  1  0  0  0
  4  3  2  0  0  0
  5  4  1  0  0  0
  6  5  2  0  0  0
  6  1  1  0  0  0
  7  8  2  0  0  0
  7 12  1  0  0  0
  8  9  1  0  0  0
  9 10  2  0  0  0
 10 13  1  0  0  0
 11 10  1  0  0  0
 12 11  2  0  0  0
 13 14  1  0  0  0
 15 17  1  0  0  0
 15 13  1  0  0  0
 16 15  2  0  0  0
 17 19  1  0  0  0
 18 12  1  0  0  0
M  END
>  <CHROM.0>
-178.31393680,176.65964978,-73.19785650,148.97343911,177.18449557,-57.28789470
6.81223208

>  <CHROM.1>
31.17811686,-97.49738389,176.27001334,117.57072385,25.93145428,22.72263137
14.48030000,-1.96184690,0.37276983,1.90056312

>  <FORMUL>
      FLP    C15 H13 F1 O2

>  <HET>
 FLP  A 701      18

>  <HETNAM>
     FLP FLURBIPROFEN

>  <Name>
FLP.pdb

>  <RI>
4.31221e+07

>  <Rbt.Current_Directory>
/home/malgorzata/Desktop/rDOCK_IFD/Wyniki/4_COX2/IFD

>  <Rbt.Executable>
rbdock ($Id: //depot/dev/client3/rdock/2013.1/src/exe/rbdock.cxx#4 $)

>  <Rbt.Library>
libRbt.so (2013.1, Build901 2013/11/27)

>  <Rbt.Parameter_File>
/home/malgorzata/Desktop/rDock_2013.1_src/data/scripts/dock.prm

>  <Rbt.Receptor>
cavity.prm

>  <SCORE>
-20.7993

>  <SCORE.INTER>
-12.4754

>  <SCORE.INTER.CONST>
1

>  <SCORE.INTER.POLAR>
-0.6

>  <SCORE.INTER.REPUL>
0.0337411

>  <SCORE.INTER.ROT>
3

>  <SCORE.INTER.VDW>
-19.0041

>  <SCORE.INTER.norm>
-0.693079

>  <SCORE.INTRA>
-0.53125

>  <SCORE.INTRA.DIHEDRAL>
-2.51804

>  <SCORE.INTRA.DIHEDRAL.0>
5.47211

>  <SCORE.INTRA.POLAR>
0

>  <SCORE.INTRA.POLAR.0>
0

>  <SCORE.INTRA.REPUL>
0

>  <SCORE.INTRA.REPUL.0>
0

>  <SCORE.INTRA.VDW>
0.727772

>  <SCORE.INTRA.VDW.0>
0.722234

>  <SCORE.INTRA.norm>
-0.0295139

>  <SCORE.RESTR>
0

>  <SCORE.RESTR.CAVITY>
0

>  <SCORE.RESTR.norm>
0

>  <SCORE.SYSTEM>
-7.79266

>  <SCORE.SYSTEM.CONST>
0

>  <SCORE.SYSTEM.DIHEDRAL>
8.29073

>  <SCORE.SYSTEM.POLAR>
-3.16637

>  <SCORE.SYSTEM.VDW>
-1.17236

>  <SCORE.SYSTEM.norm>
-0.432926

>  <SCORE.heavy>
18

>  <SCORE.norm>
-1.15552

$$$$
FLP.pdb
  rDOCK(R)          3D
libRbt.so/2013.1/901 2013/11/27
 19 20  0  0  0  0  0  0  0  0999 V2000
   26.7671   22.1809   18.4793 C   0  0  0  0  0  0
   25.3637   22.2711   18.3475 C   0  0  0  0  0  0
   24.6720   21.3133   17.6129 C   0  0  0  0  0  0
   25.3813   20.2710   17.0136 C   0  0  0  0  0  0
   26.7802   20.1874   17.1504 C   0  0  0  0  0  0
   27.4692   21.1468   17.8853 C   0  0  0  0  0  0
   23.1722   21.4119   17.4325 C   0  0  0  0  0  0
   22.2784   20.7749   18.3272 C   0  0  0  0  0  0
   20.8687   20.9069   18.1387 C   0  0  0  0  0  0
   20.3759   21.6885   17.0375 C   0  0  0  0  0  0
   21.2673   22.3127   16.1733 C   0  0  0  0  0  0
   22.6476   22.1804   16.3544 C   0  0  0  0  0  0
   18.8941   21.7764   16.7352 C   0  0  0  0  0  0
   18.5891   21.1793   15.3634 C   0  0  0  0  0  0
   18.4915   23.2501   16.7732 C   0  0  0  0  0  0
   18.5965   23.9353   15.7860 O   0  0  0  0  0  0
   18.0590   23.7946   17.8797 O   0  0  0  0  0  0
   23.4883   22.7857   15.4738 F   0  0  0  0  0  0
   18.0065   23.2840   18.6637 H   0  0  0  0  0  0
  1  2  2  0  0  0
  2  3  1  0  0  0
  3  7  1  0  0  0
  4  3  2  0  0  0
  5  4  1  0  0  0
  6  5  2  0  0  0
  6  1  1  0  0  0
  7  8  2  0  0  0
  7 12  1  0  0  0
  8  9  1  0  0  0
  9 10  2  0  0  0
 10 13  1  0  0  0
 11 10  1  0  0  0
 12 11  2  0  0  0
 13 14  1  0  0  0
 15 17  1  0  0  0
 15 13  1  0  0  0
 16 15  2  0  0  0
 17 19  1  0  0  0
 18 12  1  0  0  0
M  END
>  <CHROM.0>
-176.08568519,173.37902741,-70.47873401,148.48519067,-157.16860505,-60.46847115
57.58156750

>  <CHROM.1>
-91.87103288,-116.84826287,0.99947164,86.89213225,22.28655183,21.92359092
17.05573926,-0.23724187,0.05026821,-0.80789805

>  <FORMUL>
      FLP    C15 H13 F1 O2

>  <HET>
 FLP  A 701      18

>  <HETNAM>
     FLP FLURBIPROFEN

>  <Name>
FLP.pdb

>  <RI>
4.31221e+07

>  <Rbt.Current_Directory>
/home/malgorzata/Desktop/rDOCK_IFD/Wyniki/4_COX2/IFD

>  <Rbt.Executable>
rbdock ($Id: //depot/dev/client3/rdock/2013.1/src/exe/rbdock.cxx#4 $)

>  <Rbt.Library>
libRbt.so (2013.1, Build901 2013/11/27)

>  <Rbt.Parameter_File>
/home/malgorzata/Desktop/rDock_2013.1_src/data/scripts/dock.prm

>  <Rbt.Receptor>
cavity.prm

>  <SCORE>
-19.5791

>  <SCORE.INTER>
-12.4225

>  <SCORE.INTER.CONST>
1

>  <SCORE.INTER.POLAR>
-0.738564

>  <SCORE.INTER.REPUL>
0

>  <SCORE.INTER.ROT>
3

>  <SCORE.INTER.VDW>
-18.3114

>  <SCORE.INTER.norm>
-0.690138

>  <SCORE.INTRA>
-0.051244

>  <SCORE.INTRA.DIHEDRAL>
1.83946

>  <SCORE.INTRA.DIHEDRAL.0>
5.47211

>  <SCORE.INTRA.POLAR>
0

>  <SCORE.INTRA.POLAR.0>
0

>  <SCORE.INTRA.REPUL>
0

>  <SCORE.INTRA.REPUL.0>
0

>  <SCORE.INTRA.VDW>
-0.970976

>  <SCORE.INTRA.VDW.0>
0.722234

>  <SCORE.INTRA.norm>
-0.00284689

>  <SCORE.RESTR>
0

>  <SCORE.RESTR.CAVITY>
0

>  <SCORE.RESTR.norm>
0

>  <SCORE.SYSTEM>
-7.10535

>  <SCORE.SYSTEM.CONST>
0

>  <SCORE.SYSTEM.DIHEDRAL>
1.76112

>  <SCORE.SYSTEM.POLAR>
-1.78231

>  <SCORE.SYSTEM.VDW>
-1.92605

>  <SCORE.SYSTEM.norm>
-0.394742

>  <SCORE.heavy>
18

>  <SCORE.norm>
-1.08773

$$$$
FLP.pdb
  rDOCK(R)          3D
libRbt.so/2013.1/901 2013/11/27
 19 20  0  0  0  0  0  0  0  0999 V2000
   24.7534   23.7751    9.9501 C   0  0  0  0  0  0
   24.7491   23.3903   11.3091 C   0  0  0  0  0  0
   25.8672   23.6283   12.1020 C   0  0  0  0  0  0
   26.9833   24.2483   11.5376 C   0  0  0  0  0  0
   26.9795   24.6298   10.1822 C   0  0  0  0  0  0
   25.8603   24.3901    9.3917 C   0  0  0  0  0  0
   25.8939   23.1929   13.5516 C   0  0  0  0  0  0
   26.7404   23.8234   14.4955 C   0  0  0  0  0  0
   26.7240   23.4008   15.8598 C   0  0  0  0  0  0
   25.8437   22.3357   16.2561 C   0  0  0  0  0  0
   25.0145   21.7327   15.3180 C   0  0  0  0  0  0
   25.0330   22.1430   13.9813 C   0  0  0  0  0  0
   25.8614   21.7833   17.6666 C   0  0  0  0  0  0
   25.3469   22.8243   18.6580 C   0  0  0  0  0  0
   27.3010   21.3964   18.0036 C   0  0  0  0  0  0
   28.1377   21.3504   17.1359 O   0  0  0  0  0  0
   27.6375   21.0810   19.2263 O   0  0  0  0  0  0
   24.2251   21.5125   13.0878 F   0  0  0  0  0  0
   28.5260   20.8596   19.4254 H   0  0  0  0  0  0
  1  2  2  0  0  0
  2  3  1  0  0  0
  3  7  1  0  0  0
  4  3  2  0  0  0
  5  4  1  0  0  0
  6  5  2  0  0  0
  6  1  1  0  0  0
  7  8  2  0  0  0
  7 12  1  0  0  0
  8  9  1  0  0  0
  9 10  2  0  0  0
 10 13  1  0  0  0
 11 10  1  0  0  0
 12 11  2  0  0  0
 13 14  1  0  0  0
 15 17  1  0  0  0
 15 13  1  0  0  0
 16 15  2  0  0  0
 17 19  1  0  0  0
 18 12  1  0  0  0
M  END
>  <CHROM.0>
176.70936390,176.29872388,-74.32755504,-104.24341649,-169.99346574,-61.57317653
57.90873974

>  <CHROM.1>
-156.01670741,67.75480607,-178.95181352,-11.98720186,26.05864627,22.74009317
14.42898934,1.72898860,-0.40049301,-1.22477944

>  <FORMUL>
      FLP    C15 H13 F1 O2

>  <HET>
 FLP  A 701      18

>  <HETNAM>
     FLP FLURBIPROFEN

>  <Name>
FLP.pdb

>  <RI>
4.31221e+07

>  <Rbt.Current_Directory>
/home/malgorzata/Desktop/rDOCK_IFD/Wyniki/4_COX2/IFD

>  <Rbt.Executable>
rbdock ($Id: //depot/dev/client3/rdock/2013.1/src/exe/rbdock.cxx#4 $)

>  <Rbt.Library>
libRbt.so (2013.1, Build901 2013/11/27)

>  <Rbt.Parameter_File>
/home/malgorzata/Desktop/rDock_2013.1_src/data/scripts/dock.prm

>  <Rbt.Receptor>
cavity.prm

>  <SCORE>
-21.1182

>  <SCORE.INTER>
-12.5484

>  <SCORE.INTER.CONST>
1

>  <SCORE.INTER.POLAR>
-0.6

>  <SCORE.INTER.REPUL>
0

>  <SCORE.INTER.ROT>
3

>  <SCORE.INTER.VDW>
-18.9084

>  <SCORE.INTER.norm>
-0.697136

>  <SCORE.INTRA>
-1.26468

>  <SCORE.INTRA.DIHEDRAL>
-2.98232

>  <SCORE.INTRA.DIHEDRAL.0>
5.47211

>  <SCORE.INTRA.POLAR>
0

>  <SCORE.INTRA.POLAR.0>
0

>  <SCORE.INTRA.REPUL>
0

>  <SCORE.INTRA.REPUL.0>
0

>  <SCORE.INTRA.VDW>
0.226479

>  <SCORE.INTRA.VDW.0>
0.722234

>  <SCORE.INTRA.norm>
-0.07026

>  <SCORE.RESTR>
0

>  <SCORE.RESTR.CAVITY>
0

>  <SCORE.RESTR.norm>
0

>  <SCORE.SYSTEM>
-7.30504

>  <SCORE.SYSTEM.CONST>
0

>  <SCORE.SYSTEM.DIHEDRAL>
1.59837

>  <SCORE.SYSTEM.POLAR>
-1.82415

>  <SCORE.SYSTEM.REPUL>
0.000561209

>  <SCORE.SYSTEM.VDW>
-1.90491

>  <SCORE.SYSTEM.norm>
-0.405835

>  <SCORE.heavy>
18

>  <SCORE.norm>
-1.17323

$$$$
FLP.pdb
  rDOCK(R)          3D
libRbt.so/2013.1/901 2013/11/27
 19 20  0  0  0  0  0  0  0  0999 V2000
   18.4512   23.2722   15.7197 C   0  0  0  0  0  0
   18.8214   21.9103   15.6665 C   0  0  0  0  0  0
   19.0254   21.1993   16.8448 C   0  0  0  0  0  0
   18.8595   21.8482   18.0696 C   0  0  0  0  0  0
   18.4893   23.2060   18.1143 C   0  0  0  0  0  0
   18.2864   23.9145   16.9345 C   0  0  0  0  0  0
   19.4552   19.7482   16.8076 C   0  0  0  0  0  0
   20.8235   19.3850   16.7778 C   0  0  0  0  0  0
   21.1931   18.0053   16.7648 C   0  0  0  0  0  0
   20.1648   17.0010   16.7820 C   0  0  0  0  0  0
   18.8270   17.3753   16.8183 C   0  0  0  0  0  0
   18.4641   18.7258   16.8267 C   0  0  0  0  0  0
   20.5007   15.5282   16.6673 C   0  0  0  0  0  0
   21.9368   15.2680   17.1157 C   0  0  0  0  0  0
   20.3181   15.1151   15.2073 C   0  0  0  0  0  0
   20.2528   15.9525   14.3416 O   0  0  0  0  0  0
   20.1993   13.8552   14.8811 O   0  0  0  0  0  0
   17.1445   19.0529   16.8378 F   0  0  0  0  0  0
   20.2391   13.1939   15.5438 H   0  0  0  0  0  0
  1  2  2  0  0  0
  2  3  1  0  0  0
  3  7  1  0  0  0
  4  3  2  0  0  0
  5  4  1  0  0  0
  6  5  2  0  0  0
  6  1  1  0  0  0
  7  8  2  0  0  0
  7 12  1  0  0  0
  8  9  1  0  0  0
  9 10  2  0  0  0
 10 13  1  0  0  0
 11 10  1  0  0  0
 12 11  2  0  0  0
 13 14  1  0  0  0
 15 17  1  0  0  0
 15 13  1  0  0  0
 16 15  2  0  0  0
 17 19  1  0  0  0
 18 12  1  0  0  0
M  END
>  <CHROM.0>
179.41122027,176.19464197,-72.93365460,137.30727865,4.07516431,-60.19353105
-58.58388317

>  <CHROM.1>
89.13905811,23.52160912,-0.94841603,16.30252222,19.49487097,18.77254331,16.47289152
1.87779768,-0.49603583,0.31217803

>  <FORMUL>
      FLP    C15 H13 F1 O2

>  <HET>
 FLP  A 701      18

>  <HETNAM>
     FLP FLURBIPROFEN

>  <Name>
FLP.pdb

>  <RI>
4.31221e+07

>  <Rbt.Current_Directory>
/home/malgorzata/Desktop/rDOCK_IFD/Wyniki/4_COX2/IFD

>  <Rbt.Executable>
rbdock ($Id: //depot/dev/client3/rdock/2013.1/src/exe/rbdock.cxx#4 $)

>  <Rbt.Library>
libRbt.so (2013.1, Build901 2013/11/27)

>  <Rbt.Parameter_File>
/home/malgorzata/Desktop/rDock_2013.1_src/data/scripts/dock.prm

>  <Rbt.Receptor>
cavity.prm

>  <SCORE>
-25.0206

>  <SCORE.INTER>
-15.9393

>  <SCORE.INTER.CONST>
1

>  <SCORE.INTER.POLAR>
-0.292809

>  <SCORE.INTER.REPUL>
0

>  <SCORE.INTER.ROT>
3

>  <SCORE.INTER.VDW>
-23.3438

>  <SCORE.INTER.norm>
-0.885519

>  <SCORE.INTRA>
0.239575

>  <SCORE.INTRA.DIHEDRAL>
1.17909

>  <SCORE.INTRA.DIHEDRAL.0>
5.47211

>  <SCORE.INTRA.POLAR>
0

>  <SCORE.INTRA.POLAR.0>
0

>  <SCORE.INTRA.REPUL>
0

>  <SCORE.INTRA.REPUL.0>
0

>  <SCORE.INTRA.VDW>
-0.34997

>  <SCORE.INTRA.VDW.0>
0.722234

>  <SCORE.INTRA.norm>
0.0133097

>  <SCORE.RESTR>
0.0841652

>  <SCORE.RESTR.CAVITY>
0.0841652

>  <SCORE.RESTR.norm>
0.00467584

>  <SCORE.SYSTEM>
-9.40503

>  <SCORE.SYSTEM.CONST>
0

>  <SCORE.SYSTEM.DIHEDRAL>
1.27337

>  <SCORE.SYSTEM.POLAR>
-2.81596

>  <SCORE.SYSTEM.VDW>
-0.467434

>  <SCORE.SYSTEM.norm>
-0.522502

>  <SCORE.heavy>
18

>  <SCORE.norm>
-1.39004

$$$$
FLP.pdb
  rDOCK(R)          3D
libRbt.so/2013.1/901 2013/11/27
 19 20  0  0  0  0  0  0  0  0999 V2000
   20.5131   15.1544   14.5695 C   0  0  0  0  0  0
   20.0085   16.3924   15.0254 C   0  0  0  0  0  0
   20.5041   16.9555   16.1970 C   0  0  0  0  0  0
   21.4994   16.2831   16.9082 C   0  0  0  0  0  0
   21.9980   15.0498   16.4468 C   0  0  0  0  0  0
   21.5003   14.4889   15.2751 C   0  0  0  0  0  0
   19.9522   18.2649   16.7191 C   0  0  0  0  0  0
   18.5627   18.5373   16.7050 C   0  0  0  0  0  0
   18.0752   19.7749   17.2255 C   0  0  0  0  0  0
   19.0076   20.7304   17.7586 C   0  0  0  0  0  0
   20.3672   20.4436   17.7711 C   0  0  0  0  0  0
   20.8458   19.2340   17.2577 C   0  0  0  0  0  0
   18.5525   22.0966   18.2290 C   0  0  0  0  0  0
   17.3254   21.9738   19.1293 C   0  0  0  0  0  0
   18.2223   22.9346   16.9944 C   0  0  0  0  0  0
   18.4568   22.5098   15.8900 O   0  0  0  0  0  0
   17.7121   24.1314   17.1182 O   0  0  0  0  0  0
   22.1851   18.9997   17.2649 F   0  0  0  0  0  0
   17.5704   24.6612   16.3584 H   0  0  0  0  0  0
  1  2  2  0  0  0
  2  3  1  0  0  0
  3  7  1  0  0  0
  4  3  2  0  0  0
  5  4  1  0  0  0
  6  5  2  0  0  0
  6  1  1  0  0  0
  7  8  2  0  0  0
  7 12  1  0  0  0
  8  9  1  0  0  0
  9 10  2  0  0  0
 10 13  1  0  0  0
 11 10  1  0  0  0
 12 11  2  0  0  0
 13 14  1  0  0  0
 15 17  1  0  0  0
 15 13  1  0  0  0
 16 15  2  0  0  0
 17 19  1  0  0  0
 18 12  1  0  0  0
M  END
>  <CHROM.0>
-168.24375562,-178.73451420,-72.67185272,147.79427208,17.29222139,-59.91569951
57.81073082

>  <CHROM.1>
41.92829018,47.62363493,175.61206231,-6.51252316,19.72956238,19.24468666
16.82224129,1.08958639,0.53311250,-2.64292509

>  <FORMUL>
      FLP    C15 H13 F1 O2

>  <HET>
 FLP  A 701      18

>  <HETNAM>
     FLP FLURBIPROFEN

>  <Name>
FLP.pdb

>  <RI>
4.31221e+07

>  <Rbt.Current_Directory>
/home/malgorzata/Desktop/rDOCK_IFD/Wyniki/4_COX2/IFD

>  <Rbt.Executable>
rbdock ($Id: //depot/dev/client3/rdock/2013.1/src/exe/rbdock.cxx#4 $)

>  <Rbt.Library>
libRbt.so (2013.1, Build901 2013/11/27)

>  <Rbt.Parameter_File>
/home/malgorzata/Desktop/rDock_2013.1_src/data/scripts/dock.prm

>  <Rbt.Receptor>
cavity.prm

>  <SCORE>
-23.7609

>  <SCORE.INTER>
-15.6395

>  <SCORE.INTER.CONST>
1

>  <SCORE.INTER.POLAR>
-0.8

>  <SCORE.INTER.REPUL>
0.00718395

>  <SCORE.INTER.ROT>
3

>  <SCORE.INTER.VDW>
-21.3554

>  <SCORE.INTER.norm>
-0.868861

>  <SCORE.INTRA>
-1.39273

>  <SCORE.INTRA.DIHEDRAL>
-1.6

>  <SCORE.INTRA.DIHEDRAL.0>
5.47211

>  <SCORE.INTRA.POLAR>
0

>  <SCORE.INTRA.POLAR.0>
0

>  <SCORE.INTRA.REPUL>
0

>  <SCORE.INTRA.REPUL.0>
0

>  <SCORE.INTRA.VDW>
-0.592733

>  <SCORE.INTRA.VDW.0>
0.722234

>  <SCORE.INTRA.norm>
-0.077374

>  <SCORE.RESTR>
0

>  <SCORE.RESTR.CAVITY>
0

>  <SCORE.RESTR.norm>
0

>  <SCORE.SYSTEM>
-6.72871

>  <SCORE.SYSTEM.CONST>
0

>  <SCORE.SYSTEM.DIHEDRAL>
1.7993

>  <SCORE.SYSTEM.POLAR>
-1.81371

>  <SCORE.SYSTEM.REPUL>
1.04576e-05

>  <SCORE.SYSTEM.VDW>
-1.4618

>  <SCORE.SYSTEM.norm>
-0.373817

>  <SCORE.heavy>
18

>  <SCORE.norm>
-1.32005

$$$$
