BRL.pdb
  rDOCK(R)          3D
libRbt.so/2013.1/901 2013/11/27
 26 28  0  0  0  0  0  0  0  0999 V2000
   10.6879   -5.4976   13.1348 S   0  0  0  0  0  0
    9.4213   -3.1440   13.1313 O   0  0  0  0  0  0
   13.7616   -3.2811   12.0581 O   0  0  0  0  0  0
   13.3669  -11.9041   11.9910 O   0  0  0  0  0  0
   11.5557   -3.0143   12.5364 N   0  0  0  0  0  0
   11.6995  -12.7796    9.5266 N   0  0  0  0  0  0
    9.3628  -12.2593   10.5611 N   0  0  0  0  0  0
   10.4975   -3.7055   12.9305 C   0  0  0  0  0  0
   12.6522   -3.7608   12.3446 C   0  0  0  0  0  0
   12.4299   -5.2652   12.5542 C   0  0  0  0  0  0
   12.8096   -6.1788   11.3129 C   0  0  0  0  0  0
   12.8548   -7.6812   11.5100 C   0  0  0  0  0  0
   12.7747   -8.6230   10.3995 C   0  0  0  0  0  0
   12.9461  -10.0184   10.6450 C   0  0  0  0  0  0
   13.1829  -10.5109   11.9835 C   0  0  0  0  0  0
   13.1784   -9.5597   13.0989 C   0  0  0  0  0  0
   13.0197   -8.1572   12.8645 C   0  0  0  0  0  0
   12.4236  -13.0311   12.0761 C   0  0  0  0  0  0
   12.3879  -13.5779   10.6335 C   0  0  0  0  0  0
   12.5943  -12.8214    8.2793 C   0  0  0  0  0  0
   10.3600  -11.9245    9.6547 C   0  0  0  0  0  0
    8.2112  -11.5577   10.7358 C   0  0  0  0  0  0
    7.9437  -10.3730    9.9494 C   0  0  0  0  0  0
    8.9143   -9.9553    8.9830 C   0  0  0  0  0  0
   10.1181  -10.7227    8.8285 C   0  0  0  0  0  0
   11.5387   -2.0399   12.3969 H   0  0  0  0  0  0
  1  8  1  0  0  0
  1 10  1  0  0  0
  2  8  2  0  0  0
  3  9  2  0  0  0
  4 15  1  0  0  0
  4 18  1  0  0  0
  5  8  1  0  0  0
  5  9  1  0  0  0
  5 26  1  0  0  0
  6 19  1  0  0  0
  6 20  1  0  0  0
  6 21  1  0  0  0
  7 21  2  0  0  0
  7 22  1  0  0  0
  9 10  1  0  0  0
 10 11  1  0  0  0
 11 12  1  0  0  0
 12 13  2  0  0  0
 12 17  1  0  0  0
 13 14  1  0  0  0
 14 15  2  0  0  0
 15 16  1  0  0  0
 16 17  2  0  0  0
 18 19  1  0  0  0
 21 25  1  0  0  0
 22 23  2  0  0  0
 23 24  1  0  0  0
 24 25  2  0  0  0
M  END
>  <CHROM.0>
-88.56223350,166.80611111,74.40582047,-169.24558017,-39.22682354

>  <CHROM.1>
-86.94259040,105.06955833,136.80319250,-29.59124741,-66.11597899,160.33054407
-71.30501431,11.53819825,-8.57573204,11.37425388,1.52541343,-0.25978699,0.28328057

>  <FORMUL>
      BRL    C18 H19 N3 O3 S1

>  <HET>
 BRL  A   1      25

>  <HETNAM>
     BRL 2,4-THIAZOLIDIINEDIONE, 5-[[4-[2-(METHYL-2-PYRIDINYLAMI
   2 BRL NO)ETHOXY]PHENYL]METHYL]-(9CL)

>  <HETSYN>
     BRL BRL49653; ROSIGLITAZONE

>  <Name>
BRL.pdb

>  <RI>
0

>  <Rbt.Current_Directory>
/home/malgorzata/Desktop/rDOCK_IFD/test13

>  <Rbt.Executable>
rbdock ($Id: //depot/dev/client3/rdock/2013.1/src/exe/rbdock.cxx#4 $)

>  <Rbt.Library>
libRbt.so (2013.1, Build901 2013/11/27)

>  <Rbt.Parameter_File>
/home/malgorzata/Desktop/rDock_2013.1_src/data/scripts/soft_docking.prm

>  <Rbt.Receptor>
cavity.prm

>  <SCORE>
-18.4962

>  <SCORE.INTER>
-20.0253

>  <SCORE.INTER.CONST>
1

>  <SCORE.INTER.POLAR>
-0.0857049

>  <SCORE.INTER.REPUL>
0

>  <SCORE.INTER.ROT>
7

>  <SCORE.INTER.VDW>
-32.1339

>  <SCORE.INTER.norm>
-0.801012

>  <SCORE.INTRA>
1.5305

>  <SCORE.INTRA.DIHEDRAL>
11.508

>  <SCORE.INTRA.DIHEDRAL.0>
5.55665

>  <SCORE.INTRA.POLAR>
0

>  <SCORE.INTRA.POLAR.0>
0

>  <SCORE.INTRA.REPUL>
0

>  <SCORE.INTRA.REPUL.0>
0

>  <SCORE.INTRA.VDW>
-0.771093

>  <SCORE.INTRA.VDW.0>
-2.56587

>  <SCORE.INTRA.norm>
0.06122

>  <SCORE.RESTR>
0.547475

>  <SCORE.RESTR.CAVITY>
0.547475

>  <SCORE.RESTR.norm>
0.021899

>  <SCORE.SYSTEM>
-0.548838

>  <SCORE.SYSTEM.CONST>
0

>  <SCORE.SYSTEM.DIHEDRAL>
4.27434

>  <SCORE.SYSTEM.POLAR>
-0.162609

>  <SCORE.SYSTEM.REPUL>
0.17871

>  <SCORE.SYSTEM.VDW>
-3.02669

>  <SCORE.SYSTEM.norm>
-0.0219535

>  <SCORE.heavy>
25

>  <SCORE.norm>
-0.739846

$$$$
BRL.pdb
  rDOCK(R)          3D
libRbt.so/2013.1/901 2013/11/27
 26 28  0  0  0  0  0  0  0  0999 V2000
   15.1067   -4.8057   10.8907 S   0  0  0  0  0  0
   15.9100   -7.3387   11.1781 O   0  0  0  0  0  0
   15.1438   -4.8711   14.8295 O   0  0  0  0  0  0
    9.5300   -3.5293    8.3047 O   0  0  0  0  0  0
   15.5455   -6.2902   13.1002 N   0  0  0  0  0  0
    8.4429   -4.1284    5.7972 N   0  0  0  0  0  0
    9.3776   -5.9533    4.1857 N   0  0  0  0  0  0
   15.5815   -6.3153   11.7770 C   0  0  0  0  0  0
   15.1568   -5.1138   13.6115 C   0  0  0  0  0  0
   14.7691   -4.0696   12.5550 C   0  0  0  0  0  0
   13.3019   -3.4814   12.7001 C   0  0  0  0  0  0
   12.3671   -3.5728   11.5102 C   0  0  0  0  0  0
   11.1065   -4.3046   11.5547 C   0  0  0  0  0  0
   10.2187   -4.2477   10.4388 C   0  0  0  0  0  0
   10.5609   -3.4857    9.2588 C   0  0  0  0  0  0
   11.8675   -2.8238    9.1978 C   0  0  0  0  0  0
   12.7611   -2.8635   10.3144 C   0  0  0  0  0  0
    8.0851   -3.7894    8.4134 C   0  0  0  0  0  0
    7.5836   -3.6371    6.9620 C   0  0  0  0  0  0
    9.0853   -2.9050    5.1273 C   0  0  0  0  0  0
    8.5597   -5.6243    5.2584 C   0  0  0  0  0  0
    9.5398   -7.2113    3.6957 C   0  0  0  0  0  0
    8.8345   -8.3283    4.2860 C   0  0  0  0  0  0
    7.9619   -8.0826    5.3943 C   0  0  0  0  0  0
    7.8177   -6.7401    5.8829 C   0  0  0  0  0  0
   15.7829   -7.0657   13.6583 H   0  0  0  0  0  0
  1  8  1  0  0  0
  1 10  1  0  0  0
  2  8  2  0  0  0
  3  9  2  0  0  0
  4 15  1  0  0  0
  4 18  1  0  0  0
  5  8  1  0  0  0
  5  9  1  0  0  0
  5 26  1  0  0  0
  6 19  1  0  0  0
  6 20  1  0  0  0
  6 21  1  0  0  0
  7 21  2  0  0  0
  7 22  1  0  0  0
  9 10  1  0  0  0
 10 11  1  0  0  0
 11 12  1  0  0  0
 12 13  2  0  0  0
 12 17  1  0  0  0
 13 14  1  0  0  0
 14 15  2  0  0  0
 15 16  1  0  0  0
 16 17  2  0  0  0
 18 19  1  0  0  0
 21 25  1  0  0  0
 22 23  2  0  0  0
 23 24  1  0  0  0
 24 25  2  0  0  0
M  END
>  <CHROM.0>
176.68340265,80.76069237,44.10745765,35.88114423,123.04933629

>  <CHROM.1>
23.13580924,178.59643090,-103.83699979,179.96766075,-0.23245468,119.01063393
37.43955639,11.58962446,-4.93043244,9.17172645,-0.57722890,0.66314592,-2.41335986

>  <FORMUL>
      BRL    C18 H19 N3 O3 S1

>  <HET>
 BRL  A   1      25

>  <HETNAM>
     BRL 2,4-THIAZOLIDIINEDIONE, 5-[[4-[2-(METHYL-2-PYRIDINYLAMI
   2 BRL NO)ETHOXY]PHENYL]METHYL]-(9CL)

>  <HETSYN>
     BRL BRL49653; ROSIGLITAZONE

>  <Name>
BRL.pdb

>  <RI>
0

>  <Rbt.Current_Directory>
/home/malgorzata/Desktop/rDOCK_IFD/test13

>  <Rbt.Executable>
rbdock ($Id: //depot/dev/client3/rdock/2013.1/src/exe/rbdock.cxx#4 $)

>  <Rbt.Library>
libRbt.so (2013.1, Build901 2013/11/27)

>  <Rbt.Parameter_File>
/home/malgorzata/Desktop/rDock_2013.1_src/data/scripts/soft_docking.prm

>  <Rbt.Receptor>
cavity.prm

>  <SCORE>
-21.4911

>  <SCORE.INTER>
-23.2383

>  <SCORE.INTER.CONST>
1

>  <SCORE.INTER.POLAR>
-0.645393

>  <SCORE.INTER.REPUL>
0

>  <SCORE.INTER.ROT>
7

>  <SCORE.INTER.VDW>
-33.4439

>  <SCORE.INTER.norm>
-0.92953

>  <SCORE.INTRA>
2.14009

>  <SCORE.INTRA.DIHEDRAL>
5.00102

>  <SCORE.INTRA.DIHEDRAL.0>
5.55665

>  <SCORE.INTRA.POLAR>
0

>  <SCORE.INTRA.POLAR.0>
0

>  <SCORE.INTRA.REPUL>
0

>  <SCORE.INTRA.REPUL.0>
0

>  <SCORE.INTRA.VDW>
1.13989

>  <SCORE.INTRA.VDW.0>
-2.56587

>  <SCORE.INTRA.norm>
0.0856038

>  <SCORE.RESTR>
0

>  <SCORE.RESTR.CAVITY>
0

>  <SCORE.RESTR.norm>
0

>  <SCORE.SYSTEM>
-0.392897

>  <SCORE.SYSTEM.CONST>
0

>  <SCORE.SYSTEM.DIHEDRAL>
8.53066

>  <SCORE.SYSTEM.POLAR>
-0.690732

>  <SCORE.SYSTEM.REPUL>
0.17871

>  <SCORE.SYSTEM.VDW>
-3.20329

>  <SCORE.SYSTEM.norm>
-0.0157159

>  <SCORE.heavy>
25

>  <SCORE.norm>
-0.859642

$$$$
BRL.pdb
  rDOCK(R)          3D
libRbt.so/2013.1/901 2013/11/27
 26 28  0  0  0  0  0  0  0  0999 V2000
   11.5553  -13.4291    8.5592 S   0  0  0  0  0  0
    8.8932  -13.3292    8.3420 O   0  0  0  0  0  0
   10.9888  -10.2701   10.8438 O   0  0  0  0  0  0
   14.7429   -6.2690   11.6211 O   0  0  0  0  0  0
    9.7522  -11.7085    9.5917 N   0  0  0  0  0  0
   13.9098   -3.8508   12.8273 N   0  0  0  0  0  0
   11.8020   -5.1744   13.6059 N   0  0  0  0  0  0
    9.8809  -12.7915    8.8413 C   0  0  0  0  0  0
   10.9140  -11.2266   10.0550 C   0  0  0  0  0  0
   12.1502  -11.9904    9.5601 C   0  0  0  0  0  0
   13.2315  -11.1026    8.8102 C   0  0  0  0  0  0
   13.6916   -9.8170    9.4687 C   0  0  0  0  0  0
   12.9673   -8.5590    9.3293 C   0  0  0  0  0  0
   13.3882   -7.4170   10.0746 C   0  0  0  0  0  0
   14.5332   -7.4882   10.9544 C   0  0  0  0  0  0
   15.2990   -8.7365   11.0200 C   0  0  0  0  0  0
   14.8803   -9.8917   10.2871 C   0  0  0  0  0  0
   15.7455   -5.2041   11.4540 C   0  0  0  0  0  0
   14.9392   -3.9114   11.6990 C   0  0  0  0  0  0
   14.6410   -3.4663   14.1219 C   0  0  0  0  0  0
   12.3686   -4.2493   12.7393 C   0  0  0  0  0  0
   10.4916   -5.5374   13.5986 C   0  0  0  0  0  0
    9.5725   -4.9597   12.6421 C   0  0  0  0  0  0
   10.0701   -4.0001   11.7029 C   0  0  0  0  0  0
   11.4602   -3.6427   11.7430 C   0  0  0  0  0  0
    8.8817  -11.2944    9.7915 H   0  0  0  0  0  0
  1  8  1  0  0  0
  1 10  1  0  0  0
  2  8  2  0  0  0
  3  9  2  0  0  0
  4 15  1  0  0  0
  4 18  1  0  0  0
  5  8  1  0  0  0
  5  9  1  0  0  0
  5 26  1  0  0  0
  6 19  1  0  0  0
  6 20  1  0  0  0
  6 21  1  0  0  0
  7 21  2  0  0  0
  7 22  1  0  0  0
  9 10  1  0  0  0
 10 11  1  0  0  0
 11 12  1  0  0  0
 12 13  2  0  0  0
 12 17  1  0  0  0
 13 14  1  0  0  0
 14 15  2  0  0  0
 15 16  1  0  0  0
 16 17  2  0  0  0
 18 19  1  0  0  0
 21 25  1  0  0  0
 22 23  2  0  0  0
 23 24  1  0  0  0
 24 25  2  0  0  0
M  END
>  <CHROM.0>
-61.93957601,171.02713427,-46.60049961,7.42533335,172.27737446

>  <CHROM.1>
-105.94779833,142.27438967,85.69543030,125.31522419,173.87683459,-84.78634018
41.45581564,12.42018266,-8.21445727,10.82470341,-1.80854720,0.10238451,0.44504058

>  <FORMUL>
      BRL    C18 H19 N3 O3 S1

>  <HET>
 BRL  A   1      25

>  <HETNAM>
     BRL 2,4-THIAZOLIDIINEDIONE, 5-[[4-[2-(METHYL-2-PYRIDINYLAMI
   2 BRL NO)ETHOXY]PHENYL]METHYL]-(9CL)

>  <HETSYN>
     BRL BRL49653; ROSIGLITAZONE

>  <Name>
BRL.pdb

>  <RI>
0

>  <Rbt.Current_Directory>
/home/malgorzata/Desktop/rDOCK_IFD/test13

>  <Rbt.Executable>
rbdock ($Id: //depot/dev/client3/rdock/2013.1/src/exe/rbdock.cxx#4 $)

>  <Rbt.Library>
libRbt.so (2013.1, Build901 2013/11/27)

>  <Rbt.Parameter_File>
/home/malgorzata/Desktop/rDock_2013.1_src/data/scripts/soft_docking.prm

>  <Rbt.Receptor>
cavity.prm

>  <SCORE>
-21.8743

>  <SCORE.INTER>
-22.8391

>  <SCORE.INTER.CONST>
1

>  <SCORE.INTER.POLAR>
-0.203387

>  <SCORE.INTER.REPUL>
0

>  <SCORE.INTER.ROT>
7

>  <SCORE.INTER.VDW>
-34.5476

>  <SCORE.INTER.norm>
-0.913566

>  <SCORE.INTRA>
2.75997

>  <SCORE.INTRA.DIHEDRAL>
16.6553

>  <SCORE.INTRA.DIHEDRAL.0>
5.55665

>  <SCORE.INTRA.POLAR>
0

>  <SCORE.INTRA.POLAR.0>
0

>  <SCORE.INTRA.REPUL>
0

>  <SCORE.INTRA.REPUL.0>
0

>  <SCORE.INTRA.VDW>
-0.571085

>  <SCORE.INTRA.VDW.0>
-2.56587

>  <SCORE.INTRA.norm>
0.110399

>  <SCORE.RESTR>
0.221485

>  <SCORE.RESTR.CAVITY>
0.221485

>  <SCORE.RESTR.norm>
0.00885939

>  <SCORE.SYSTEM>
-2.01656

>  <SCORE.SYSTEM.CONST>
0

>  <SCORE.SYSTEM.DIHEDRAL>
1.80968

>  <SCORE.SYSTEM.POLAR>
-0.356424

>  <SCORE.SYSTEM.REPUL>
0.17871

>  <SCORE.SYSTEM.VDW>
-2.60311

>  <SCORE.SYSTEM.norm>
-0.0806623

>  <SCORE.heavy>
25

>  <SCORE.norm>
-0.87497

$$$$
BRL.pdb
  rDOCK(R)          3D
libRbt.so/2013.1/901 2013/11/27
 26 28  0  0  0  0  0  0  0  0999 V2000
   16.7949   -7.5556   13.6920 S   0  0  0  0  0  0
   14.8606   -5.9350   14.5730 O   0  0  0  0  0  0
   16.1095   -5.7018   10.2841 O   0  0  0  0  0  0
   11.7063  -10.8464    9.6268 O   0  0  0  0  0  0
   15.3136   -5.6986   12.4131 N   0  0  0  0  0  0
    8.5028   -9.9341   10.6927 N   0  0  0  0  0  0
    8.1530   -7.7869   12.1308 N   0  0  0  0  0  0
   15.5235   -6.2660   13.5907 C   0  0  0  0  0  0
   16.0998   -6.1693   11.4348 C   0  0  0  0  0  0
   17.0257   -7.3132   11.8717 C   0  0  0  0  0  0
   16.8794   -8.6524   11.0321 C   0  0  0  0  0  0
   15.4861   -9.1327   10.6772 C   0  0  0  0  0  0
   15.0203   -9.2463    9.3000 C   0  0  0  0  0  0
   13.7411   -9.8205    9.0337 C   0  0  0  0  0  0
   12.8953  -10.2768   10.1137 C   0  0  0  0  0  0
   13.3434  -10.0800   11.4955 C   0  0  0  0  0  0
   14.6285   -9.5167   11.7752 C   0  0  0  0  0  0
   10.5899  -11.5376   10.2923 C   0  0  0  0  0  0
    9.3432  -10.8024    9.7567 C   0  0  0  0  0  0
    7.0273  -10.3147   10.5022 C   0  0  0  0  0  0
    9.0206   -8.7384   11.6114 C   0  0  0  0  0  0
    8.5278   -6.7599   12.9393 C   0  0  0  0  0  0
    9.9137   -6.5881   13.3176 C   0  0  0  0  0  0
   10.8823   -7.5193   12.8226 C   0  0  0  0  0  0
   10.4469   -8.5907   11.9714 C   0  0  0  0  0  0
   14.6409   -4.9945   12.2689 H   0  0  0  0  0  0
  1  8  1  0  0  0
  1 10  1  0  0  0
  2  8  2  0  0  0
  3  9  2  0  0  0
  4 15  1  0  0  0
  4 18  1  0  0  0
  5  8  1  0  0  0
  5  9  1  0  0  0
  5 26  1  0  0  0
  6 19  1  0  0  0
  6 20  1  0  0  0
  6 21  1  0  0  0
  7 21  2  0  0  0
  7 22  1  0  0  0
  9 10  1  0  0  0
 10 11  1  0  0  0
 11 12  1  0  0  0
 12 13  2  0  0  0
 12 17  1  0  0  0
 13 14  1  0  0  0
 14 15  2  0  0  0
 15 16  1  0  0  0
 16 17  2  0  0  0
 18 19  1  0  0  0
 21 25  1  0  0  0
 22 23  2  0  0  0
 23 24  1  0  0  0
 24 25  2  0  0  0
M  END
>  <CHROM.0>
-148.37521229,73.33042020,-31.62905406,19.92315351,154.27733504

>  <CHROM.1>
174.49664366,129.24934449,-131.52355069,161.78127310,81.77999297,117.15289694
-111.66183668,12.90585904,-8.37750138,11.58575750,0.34416236,0.09051288,0.73007160

>  <FORMUL>
      BRL    C18 H19 N3 O3 S1

>  <HET>
 BRL  A   1      25

>  <HETNAM>
     BRL 2,4-THIAZOLIDIINEDIONE, 5-[[4-[2-(METHYL-2-PYRIDINYLAMI
   2 BRL NO)ETHOXY]PHENYL]METHYL]-(9CL)

>  <HETSYN>
     BRL BRL49653; ROSIGLITAZONE

>  <Name>
BRL.pdb

>  <RI>
0

>  <Rbt.Current_Directory>
/home/malgorzata/Desktop/rDOCK_IFD/test13

>  <Rbt.Executable>
rbdock ($Id: //depot/dev/client3/rdock/2013.1/src/exe/rbdock.cxx#4 $)

>  <Rbt.Library>
libRbt.so (2013.1, Build901 2013/11/27)

>  <Rbt.Parameter_File>
/home/malgorzata/Desktop/rDock_2013.1_src/data/scripts/soft_docking.prm

>  <Rbt.Receptor>
cavity.prm

>  <SCORE>
-29.7292

>  <SCORE.INTER>
-30.904

>  <SCORE.INTER.CONST>
1

>  <SCORE.INTER.POLAR>
-0.686855

>  <SCORE.INTER.REPUL>
0

>  <SCORE.INTER.ROT>
7

>  <SCORE.INTER.VDW>
-40.9686

>  <SCORE.INTER.norm>
-1.23616

>  <SCORE.INTRA>
1.25689

>  <SCORE.INTRA.DIHEDRAL>
12.3361

>  <SCORE.INTRA.DIHEDRAL.0>
5.55665

>  <SCORE.INTRA.POLAR>
0

>  <SCORE.INTRA.POLAR.0>
0

>  <SCORE.INTRA.REPUL>
0

>  <SCORE.INTRA.REPUL.0>
0

>  <SCORE.INTRA.VDW>
-1.21034

>  <SCORE.INTRA.VDW.0>
-2.56587

>  <SCORE.INTRA.norm>
0.0502756

>  <SCORE.RESTR>
0.58575

>  <SCORE.RESTR.CAVITY>
0.58575

>  <SCORE.RESTR.norm>
0.02343

>  <SCORE.SYSTEM>
-0.667845

>  <SCORE.SYSTEM.CONST>
0

>  <SCORE.SYSTEM.DIHEDRAL>
5.99551

>  <SCORE.SYSTEM.POLAR>
-0.482303

>  <SCORE.SYSTEM.REPUL>
0.17871

>  <SCORE.SYSTEM.VDW>
-2.91932

>  <SCORE.SYSTEM.norm>
-0.0267138

>  <SCORE.heavy>
25

>  <SCORE.norm>
-1.18917

$$$$
BRL.pdb
  rDOCK(R)          3D
libRbt.so/2013.1/901 2013/11/27
 26 28  0  0  0  0  0  0  0  0999 V2000
   10.2519  -11.8016    8.4437 S   0  0  0  0  0  0
    9.0309   -9.4368    8.1975 O   0  0  0  0  0  0
    8.9247  -11.5403   12.1438 O   0  0  0  0  0  0
   15.0291   -8.5133   12.8369 O   0  0  0  0  0  0
    8.9014  -10.3046   10.2363 N   0  0  0  0  0  0
   13.2393   -5.9507   12.2342 N   0  0  0  0  0  0
   10.7401   -5.8162   12.9669 N   0  0  0  0  0  0
    9.2951  -10.3546    8.9732 C   0  0  0  0  0  0
    9.2731  -11.3669   10.9642 C   0  0  0  0  0  0
   10.1347  -12.3803   10.1979 C   0  0  0  0  0  0
   11.5450  -12.6946   10.8553 C   0  0  0  0  0  0
   12.3785  -11.5348   11.3633 C   0  0  0  0  0  0
   12.5507  -11.2526   12.7836 C   0  0  0  0  0  0
   13.4465  -10.2200   13.1936 C   0  0  0  0  0  0
   14.1738   -9.4403   12.2172 C   0  0  0  0  0  0
   13.9270   -9.6816   10.7925 C   0  0  0  0  0  0
   13.0406  -10.7217   10.3689 C   0  0  0  0  0  0
   15.5748   -7.2177   12.4002 C   0  0  0  0  0  0
   14.4344   -6.6163   11.5522 C   0  0  0  0  0  0
   13.7319   -4.6652   12.9148 C   0  0  0  0  0  0
   11.7607   -6.5338   12.3574 C   0  0  0  0  0  0
    9.4553   -6.2465   13.0810 C   0  0  0  0  0  0
    9.0608   -7.5357   12.5560 C   0  0  0  0  0  0
   10.0498   -8.3496   11.9158 C   0  0  0  0  0  0
   11.3957   -7.8597   11.8147 C   0  0  0  0  0  0
    8.3825   -9.5548   10.6074 H   0  0  0  0  0  0
  1  8  1  0  0  0
  1 10  1  0  0  0
  2  8  2  0  0  0
  3  9  2  0  0  0
  4 15  1  0  0  0
  4 18  1  0  0  0
  5  8  1  0  0  0
  5  9  1  0  0  0
  5 26  1  0  0  0
  6 19  1  0  0  0
  6 20  1  0  0  0
  6 21  1  0  0  0
  7 21  2  0  0  0
  7 22  1  0  0  0
  9 10  1  0  0  0
 10 11  1  0  0  0
 11 12  1  0  0  0
 12 13  2  0  0  0
 12 17  1  0  0  0
 13 14  1  0  0  0
 14 15  2  0  0  0
 15 16  1  0  0  0
 16 17  2  0  0  0
 18 19  1  0  0  0
 21 25  1  0  0  0
 22 23  2  0  0  0
 23 24  1  0  0  0
 24 25  2  0  0  0
M  END
>  <CHROM.0>
124.03100745,179.39727667,77.61973013,46.24756851,162.91765433

>  <CHROM.1>
-153.65745321,34.41852612,67.77114786,-177.93285487,79.58308168,106.73723321
79.34716545,11.58191118,-9.23081010,11.33461582,-2.16463883,-0.22587923,0.38029104

>  <FORMUL>
      BRL    C18 H19 N3 O3 S1

>  <HET>
 BRL  A   1      25

>  <HETNAM>
     BRL 2,4-THIAZOLIDIINEDIONE, 5-[[4-[2-(METHYL-2-PYRIDINYLAMI
   2 BRL NO)ETHOXY]PHENYL]METHYL]-(9CL)

>  <HETSYN>
     BRL BRL49653; ROSIGLITAZONE

>  <Name>
BRL.pdb

>  <RI>
0

>  <Rbt.Current_Directory>
/home/malgorzata/Desktop/rDOCK_IFD/test13

>  <Rbt.Executable>
rbdock ($Id: //depot/dev/client3/rdock/2013.1/src/exe/rbdock.cxx#4 $)

>  <Rbt.Library>
libRbt.so (2013.1, Build901 2013/11/27)

>  <Rbt.Parameter_File>
/home/malgorzata/Desktop/rDock_2013.1_src/data/scripts/soft_docking.prm

>  <Rbt.Receptor>
cavity.prm

>  <SCORE>
-24.7704

>  <SCORE.INTER>
-23.6656

>  <SCORE.INTER.CONST>
1

>  <SCORE.INTER.POLAR>
0

>  <SCORE.INTER.REPUL>
0

>  <SCORE.INTER.ROT>
7

>  <SCORE.INTER.VDW>
-36.0656

>  <SCORE.INTER.norm>
-0.946626

>  <SCORE.INTRA>
-0.482208

>  <SCORE.INTRA.DIHEDRAL>
4.15576

>  <SCORE.INTRA.DIHEDRAL.0>
5.55665

>  <SCORE.INTRA.POLAR>
0

>  <SCORE.INTRA.POLAR.0>
0

>  <SCORE.INTRA.REPUL>
0

>  <SCORE.INTRA.REPUL.0>
0

>  <SCORE.INTRA.VDW>
-1.31336

>  <SCORE.INTRA.VDW.0>
-2.56587

>  <SCORE.INTRA.norm>
-0.0192883

>  <SCORE.RESTR>
0.334946

>  <SCORE.RESTR.CAVITY>
0.334946

>  <SCORE.RESTR.norm>
0.0133979

>  <SCORE.SYSTEM>
-0.957459

>  <SCORE.SYSTEM.CONST>
0

>  <SCORE.SYSTEM.DIHEDRAL>
4.76775

>  <SCORE.SYSTEM.POLAR>
-0.381075

>  <SCORE.SYSTEM.REPUL>
0.17871

>  <SCORE.SYSTEM.VDW>
-2.93923

>  <SCORE.SYSTEM.norm>
-0.0382984

>  <SCORE.heavy>
25

>  <SCORE.norm>
-0.990815

$$$$
BRL.pdb
  rDOCK(R)          3D
libRbt.so/2013.1/901 2013/11/27
 26 28  0  0  0  0  0  0  0  0999 V2000
   13.9041   -3.6692   11.3416 S   0  0  0  0  0  0
   15.1600   -4.8773    9.3150 O   0  0  0  0  0  0
   15.7974   -6.3840   13.4782 O   0  0  0  0  0  0
    9.4765   -8.9721   11.2632 O   0  0  0  0  0  0
   15.5712   -5.7898   11.2961 N   0  0  0  0  0  0
   10.3390  -12.1790   10.0803 N   0  0  0  0  0  0
   12.0293  -13.8080   11.2161 N   0  0  0  0  0  0
   14.9850   -4.8806   10.5329 C   0  0  0  0  0  0
   15.2772   -5.6775   12.5990 C   0  0  0  0  0  0
   14.2698   -4.5644   12.9197 C   0  0  0  0  0  0
   12.9677   -5.0405   13.6928 C   0  0  0  0  0  0
   12.0220   -5.9962   12.9926 C   0  0  0  0  0  0
   12.4541   -6.8865   11.9215 C   0  0  0  0  0  0
   11.5404   -7.8457   11.3905 C   0  0  0  0  0  0
   10.1871   -7.9349   11.8911 C   0  0  0  0  0  0
    9.7446   -6.9781   12.9098 C   0  0  0  0  0  0
   10.6543   -6.0198   13.4585 C   0  0  0  0  0  0
    9.6173   -9.6199    9.9488 C   0  0  0  0  0  0
    9.2721  -11.0959   10.2381 C   0  0  0  0  0  0
   10.0153  -12.9887    8.8161 C   0  0  0  0  0  0
   11.5107  -12.5248   11.1046 C   0  0  0  0  0  0
   13.0433  -14.1611   12.0504 C   0  0  0  0  0  0
   13.6644  -13.1785   12.9120 C   0  0  0  0  0  0
   13.1893  -11.8284   12.8699 C   0  0  0  0  0  0
   12.1168  -11.4951   11.9752 C   0  0  0  0  0  0
   16.1691   -6.4855   10.9389 H   0  0  0  0  0  0
  1  8  1  0  0  0
  1 10  1  0  0  0
  2  8  2  0  0  0
  3  9  2  0  0  0
  4 15  1  0  0  0
  4 18  1  0  0  0
  5  8  1  0  0  0
  5  9  1  0  0  0
  5 26  1  0  0  0
  6 19  1  0  0  0
  6 20  1  0  0  0
  6 21  1  0  0  0
  7 21  2  0  0  0
  7 22  1  0  0  0
  9 10  1  0  0  0
 10 11  1  0  0  0
 11 12  1  0  0  0
 12 13  2  0  0  0
 12 17  1  0  0  0
 13 14  1  0  0  0
 14 15  2  0  0  0
 15 16  1  0  0  0
 16 17  2  0  0  0
 18 19  1  0  0  0
 21 25  1  0  0  0
 22 23  2  0  0  0
 23 24  1  0  0  0
 24 25  2  0  0  0
M  END
>  <CHROM.0>
151.52623820,74.96246136,176.15529584,10.13755059,-164.21701639

>  <CHROM.1>
-25.97145816,143.74940901,-107.03127721,150.39976076,60.14281887,24.43977844
-114.90797741,12.44227787,-8.32096844,11.63126181,1.18992563,-0.20632523
0.03660083

>  <FORMUL>
      BRL    C18 H19 N3 O3 S1

>  <HET>
 BRL  A   1      25

>  <HETNAM>
     BRL 2,4-THIAZOLIDIINEDIONE, 5-[[4-[2-(METHYL-2-PYRIDINYLAMI
   2 BRL NO)ETHOXY]PHENYL]METHYL]-(9CL)

>  <HETSYN>
     BRL BRL49653; ROSIGLITAZONE

>  <Name>
BRL.pdb

>  <RI>
0

>  <Rbt.Current_Directory>
/home/malgorzata/Desktop/rDOCK_IFD/test13

>  <Rbt.Executable>
rbdock ($Id: //depot/dev/client3/rdock/2013.1/src/exe/rbdock.cxx#4 $)

>  <Rbt.Library>
libRbt.so (2013.1, Build901 2013/11/27)

>  <Rbt.Parameter_File>
/home/malgorzata/Desktop/rDock_2013.1_src/data/scripts/soft_docking.prm

>  <Rbt.Receptor>
cavity.prm

>  <SCORE>
-24.987

>  <SCORE.INTER>
-26.5948

>  <SCORE.INTER.CONST>
1

>  <SCORE.INTER.POLAR>
-0.251668

>  <SCORE.INTER.REPUL>
0

>  <SCORE.INTER.ROT>
7

>  <SCORE.INTER.VDW>
-38.1391

>  <SCORE.INTER.norm>
-1.06379

>  <SCORE.INTRA>
2.12953

>  <SCORE.INTRA.DIHEDRAL>
11.1545

>  <SCORE.INTRA.DIHEDRAL.0>
5.55665

>  <SCORE.INTRA.POLAR>
0

>  <SCORE.INTRA.POLAR.0>
0

>  <SCORE.INTRA.REPUL>
0

>  <SCORE.INTRA.REPUL.0>
0

>  <SCORE.INTRA.VDW>
-0.101362

>  <SCORE.INTRA.VDW.0>
-2.56587

>  <SCORE.INTRA.norm>
0.0851812

>  <SCORE.RESTR>
1.50447

>  <SCORE.RESTR.CAVITY>
1.50447

>  <SCORE.RESTR.norm>
0.0601789

>  <SCORE.SYSTEM>
-2.02623

>  <SCORE.SYSTEM.CONST>
0

>  <SCORE.SYSTEM.DIHEDRAL>
2.05795

>  <SCORE.SYSTEM.POLAR>
-0.232688

>  <SCORE.SYSTEM.REPUL>
0.17871

>  <SCORE.SYSTEM.VDW>
-3.15762

>  <SCORE.SYSTEM.norm>
-0.0810491

>  <SCORE.heavy>
25

>  <SCORE.norm>
-0.999481

$$$$
BRL.pdb
  rDOCK(R)          3D
libRbt.so/2013.1/901 2013/11/27
 26 28  0  0  0  0  0  0  0  0999 V2000
    9.7069   -9.8563   10.1259 S   0  0  0  0  0  0
    7.2474  -10.1582   11.1279 O   0  0  0  0  0  0
    8.8857  -13.2999    8.3976 O   0  0  0  0  0  0
   15.7604   -8.4742   11.2312 O   0  0  0  0  0  0
    7.8979  -11.8354    9.8277 N   0  0  0  0  0  0
   14.9948   -6.5213   13.1043 N   0  0  0  0  0  0
   14.8128   -4.8777   11.0878 N   0  0  0  0  0  0
    8.1078  -10.6643   10.4084 C   0  0  0  0  0  0
    8.9276  -12.2669    9.0860 C   0  0  0  0  0  0
   10.1557  -11.3466    9.1244 C   0  0  0  0  0  0
   11.5016  -12.0435    9.5963 C   0  0  0  0  0  0
   12.6795  -11.1627    9.9635 C   0  0  0  0  0  0
   12.9515   -9.8946    9.2968 C   0  0  0  0  0  0
   14.0051   -9.0588    9.7745 C   0  0  0  0  0  0
   14.8157   -9.4612   10.9019 C   0  0  0  0  0  0
   14.5825  -10.7753   11.5084 C   0  0  0  0  0  0
   13.5219  -11.6171   11.0463 C   0  0  0  0  0  0
   16.7467   -8.3654   12.3185 C   0  0  0  0  0  0
   16.4415   -6.9874   12.9424 C   0  0  0  0  0  0
   14.3816   -7.2699   14.2967 C   0  0  0  0  0  0
   14.1913   -5.5409   12.1374 C   0  0  0  0  0  0
   14.1795   -4.0499   10.2144 C   0  0  0  0  0  0
   12.7602   -3.7967   10.3367 C   0  0  0  0  0  0
   12.0366   -4.4333   11.3957 C   0  0  0  0  0  0
   12.7413   -5.3008   12.2973 C   0  0  0  0  0  0
    7.0610  -12.3434    9.9312 H   0  0  0  0  0  0
  1  8  1  0  0  0
  1 10  1  0  0  0
  2  8  2  0  0  0
  3  9  2  0  0  0
  4 15  1  0  0  0
  4 18  1  0  0  0
  5  8  1  0  0  0
  5  9  1  0  0  0
  5 26  1  0  0  0
  6 19  1  0  0  0
  6 20  1  0  0  0
  6 21  1  0  0  0
  7 21  2  0  0  0
  7 22  1  0  0  0
  9 10  1  0  0  0
 10 11  1  0  0  0
 11 12  1  0  0  0
 12 13  2  0  0  0
 12 17  1  0  0  0
 13 14  1  0  0  0
 14 15  2  0  0  0
 15 16  1  0  0  0
 16 17  2  0  0  0
 18 19  1  0  0  0
 21 25  1  0  0  0
 22 23  2  0  0  0
 23 24  1  0  0  0
 24 25  2  0  0  0
M  END
>  <CHROM.0>
49.59196226,-9.71008348,156.86380151,-5.75048329,138.83977926

>  <CHROM.1>
176.04205499,-127.04845719,75.99545958,-7.42149201,-41.95848270,-33.70578076
39.39307479,12.38707424,-8.84916600,10.83968413,2.35549183,0.22514680,-2.96435037

>  <FORMUL>
      BRL    C18 H19 N3 O3 S1

>  <HET>
 BRL  A   1      25

>  <HETNAM>
     BRL 2,4-THIAZOLIDIINEDIONE, 5-[[4-[2-(METHYL-2-PYRIDINYLAMI
   2 BRL NO)ETHOXY]PHENYL]METHYL]-(9CL)

>  <HETSYN>
     BRL BRL49653; ROSIGLITAZONE

>  <Name>
BRL.pdb

>  <RI>
0

>  <Rbt.Current_Directory>
/home/malgorzata/Desktop/rDOCK_IFD/test13

>  <Rbt.Executable>
rbdock ($Id: //depot/dev/client3/rdock/2013.1/src/exe/rbdock.cxx#4 $)

>  <Rbt.Library>
libRbt.so (2013.1, Build901 2013/11/27)

>  <Rbt.Parameter_File>
/home/malgorzata/Desktop/rDock_2013.1_src/data/scripts/soft_docking.prm

>  <Rbt.Receptor>
cavity.prm

>  <SCORE>
-23.0102

>  <SCORE.INTER>
-26.7428

>  <SCORE.INTER.CONST>
1

>  <SCORE.INTER.POLAR>
-0.195878

>  <SCORE.INTER.REPUL>
0

>  <SCORE.INTER.ROT>
7

>  <SCORE.INTER.VDW>
-38.4768

>  <SCORE.INTER.norm>
-1.06971

>  <SCORE.INTRA>
1.54745

>  <SCORE.INTRA.DIHEDRAL>
7.53234

>  <SCORE.INTRA.DIHEDRAL.0>
5.55665

>  <SCORE.INTRA.POLAR>
0

>  <SCORE.INTRA.POLAR.0>
0

>  <SCORE.INTRA.REPUL>
0

>  <SCORE.INTRA.REPUL.0>
0

>  <SCORE.INTRA.VDW>
0.04098

>  <SCORE.INTRA.VDW.0>
-2.56587

>  <SCORE.INTRA.norm>
0.0618979

>  <SCORE.RESTR>
0.134194

>  <SCORE.RESTR.CAVITY>
0.134194

>  <SCORE.RESTR.norm>
0.00536774

>  <SCORE.SYSTEM>
2.0509

>  <SCORE.SYSTEM.CONST>
0

>  <SCORE.SYSTEM.DIHEDRAL>
11.5692

>  <SCORE.SYSTEM.POLAR>
-0.682546

>  <SCORE.SYSTEM.REPUL>
0.17871

>  <SCORE.SYSTEM.VDW>
-2.30658

>  <SCORE.SYSTEM.norm>
0.0820359

>  <SCORE.heavy>
25

>  <SCORE.norm>
-0.920409

$$$$
BRL.pdb
  rDOCK(R)          3D
libRbt.so/2013.1/901 2013/11/27
 26 28  0  0  0  0  0  0  0  0999 V2000
    9.4063   -8.8106   -1.3210 S   0  0  0  0  0  0
   10.6401  -11.0907   -1.9712 O   0  0  0  0  0  0
   11.7681   -9.0121    1.8256 O   0  0  0  0  0  0
   10.1778   -4.5607    5.8286 O   0  0  0  0  0  0
   11.3070  -10.2305   -0.0369 N   0  0  0  0  0  0
    9.5862   -2.8546    7.8947 N   0  0  0  0  0  0
    8.7612   -5.3251    8.0244 N   0  0  0  0  0  0
   10.5598  -10.1971   -1.1293 C   0  0  0  0  0  0
   11.1016   -9.1992    0.7943 C   0  0  0  0  0  0
    9.9955   -8.2377    0.3374 C   0  0  0  0  0  0
    8.8223   -8.0189    1.3841 C   0  0  0  0  0  0
    9.0801   -7.1231    2.5796 C   0  0  0  0  0  0
    9.6470   -7.6207    3.8276 C   0  0  0  0  0  0
    9.9764   -6.7013    4.8682 C   0  0  0  0  0  0
    9.7407   -5.2842    4.7058 C   0  0  0  0  0  0
    9.0945   -4.8101    3.4783 C   0  0  0  0  0  0
    8.7704   -5.7203    2.4230 C   0  0  0  0  0  0
   11.3253   -3.6655    6.0494 C   0  0  0  0  0  0
   11.0301   -3.0383    7.4281 C   0  0  0  0  0  0
    9.4349   -1.4233    8.4302 C   0  0  0  0  0  0
    8.4519   -3.9730    7.9602 C   0  0  0  0  0  0
    7.8424   -6.3242    8.1074 C   0  0  0  0  0  0
    6.4273   -6.0237    8.1289 C   0  0  0  0  0  0
    6.0137   -4.6545    8.0595 C   0  0  0  0  0  0
    7.0143   -3.6283    7.9732 C   0  0  0  0  0  0
   11.9550  -10.9481    0.1483 H   0  0  0  0  0  0
  1  8  1  0  0  0
  1 10  1  0  0  0
  2  8  2  0  0  0
  3  9  2  0  0  0
  4 15  1  0  0  0
  4 18  1  0  0  0
  5  8  1  0  0  0
  5  9  1  0  0  0
  5 26  1  0  0  0
  6 19  1  0  0  0
  6 20  1  0  0  0
  6 21  1  0  0  0
  7 21  2  0  0  0
  7 22  1  0  0  0
  9 10  1  0  0  0
 10 11  1  0  0  0
 11 12  1  0  0  0
 12 13  2  0  0  0
 12 17  1  0  0  0
 13 14  1  0  0  0
 14 15  2  0  0  0
 15 16  1  0  0  0
 16 17  2  0  0  0
 18 19  1  0  0  0
 21 25  1  0  0  0
 22 23  2  0  0  0
 23 24  1  0  0  0
 24 25  2  0  0  0
M  END
>  <CHROM.0>
13.55165016,45.43388793,73.08309004,67.65915541,-101.47665035

>  <CHROM.1>
107.46918099,170.14422856,-132.27868164,22.22320642,-159.18802774,-87.93418765
-29.21326356,9.48679535,-6.44323950,3.91693428,1.38940737,-0.46683718,-2.25194028

>  <FORMUL>
      BRL    C18 H19 N3 O3 S1

>  <HET>
 BRL  A   1      25

>  <HETNAM>
     BRL 2,4-THIAZOLIDIINEDIONE, 5-[[4-[2-(METHYL-2-PYRIDINYLAMI
   2 BRL NO)ETHOXY]PHENYL]METHYL]-(9CL)

>  <HETSYN>
     BRL BRL49653; ROSIGLITAZONE

>  <Name>
BRL.pdb

>  <RI>
0

>  <Rbt.Current_Directory>
/home/malgorzata/Desktop/rDOCK_IFD/test13

>  <Rbt.Executable>
rbdock ($Id: //depot/dev/client3/rdock/2013.1/src/exe/rbdock.cxx#4 $)

>  <Rbt.Library>
libRbt.so (2013.1, Build901 2013/11/27)

>  <Rbt.Parameter_File>
/home/malgorzata/Desktop/rDock_2013.1_src/data/scripts/soft_docking.prm

>  <Rbt.Receptor>
cavity.prm

>  <SCORE>
-17.0514

>  <SCORE.INTER>
-21.1072

>  <SCORE.INTER.CONST>
1

>  <SCORE.INTER.POLAR>
-0.368235

>  <SCORE.INTER.REPUL>
0

>  <SCORE.INTER.ROT>
7

>  <SCORE.INTER.VDW>
-32.2552

>  <SCORE.INTER.norm>
-0.844287

>  <SCORE.INTRA>
1.00691

>  <SCORE.INTRA.DIHEDRAL>
9.27651

>  <SCORE.INTRA.DIHEDRAL.0>
5.55665

>  <SCORE.INTRA.POLAR>
0

>  <SCORE.INTRA.POLAR.0>
0

>  <SCORE.INTRA.REPUL>
0

>  <SCORE.INTRA.REPUL.0>
0

>  <SCORE.INTRA.VDW>
-0.848389

>  <SCORE.INTRA.VDW.0>
-2.56587

>  <SCORE.INTRA.norm>
0.0402766

>  <SCORE.RESTR>
0

>  <SCORE.RESTR.CAVITY>
0

>  <SCORE.RESTR.norm>
0

>  <SCORE.SYSTEM>
3.04882

>  <SCORE.SYSTEM.CONST>
0

>  <SCORE.SYSTEM.DIHEDRAL>
10.9649

>  <SCORE.SYSTEM.POLAR>
-0.173648

>  <SCORE.SYSTEM.REPUL>
0.17871

>  <SCORE.SYSTEM.VDW>
-2.73676

>  <SCORE.SYSTEM.norm>
0.121953

>  <SCORE.heavy>
25

>  <SCORE.norm>
-0.682057

$$$$
BRL.pdb
  rDOCK(R)          3D
libRbt.so/2013.1/901 2013/11/27
 26 28  0  0  0  0  0  0  0  0999 V2000
   10.0279  -12.5930    8.7486 S   0  0  0  0  0  0
    7.5483  -12.6144    9.7462 O   0  0  0  0  0  0
   11.0260  -12.7192   12.5575 O   0  0  0  0  0  0
   11.3366   -6.3189   12.8164 O   0  0  0  0  0  0
    9.1380  -12.6321   11.2951 N   0  0  0  0  0  0
   12.4698   -4.0487   11.7502 N   0  0  0  0  0  0
   14.6352   -5.5002   11.8207 N   0  0  0  0  0  0
    8.7453  -12.6219   10.0308 C   0  0  0  0  0  0
   10.4692  -12.6253   11.4512 C   0  0  0  0  0  0
   11.2534  -12.5362   10.1345 C   0  0  0  0  0  0
   12.2627  -11.3150   10.0361 C   0  0  0  0  0  0
   11.9507  -10.0563   10.8212 C   0  0  0  0  0  0
   12.7423   -9.6286   11.9688 C   0  0  0  0  0  0
   12.4673   -8.3714   12.5857 C   0  0  0  0  0  0
   11.4035   -7.5237   12.0960 C   0  0  0  0  0  0
   10.5647   -8.0053   10.9945 C   0  0  0  0  0  0
   10.8377   -9.2583   10.3601 C   0  0  0  0  0  0
   10.3474   -5.2289   12.8410 C   0  0  0  0  0  0
   10.9529   -4.1742   11.8912 C   0  0  0  0  0  0
   12.7643   -3.0250   10.6440 C   0  0  0  0  0  0
   13.5759   -4.9161   12.5024 C   0  0  0  0  0  0
   15.6226   -6.2287   12.4066 C   0  0  0  0  0  0
   15.6239   -6.4521   13.8361 C   0  0  0  0  0  0
   14.5649   -5.8926   14.6208 C   0  0  0  0  0  0
   13.5408   -5.1290   13.9650 C   0  0  0  0  0  0
    8.5090  -12.6437   12.0523 H   0  0  0  0  0  0
  1  8  1  0  0  0
  1 10  1  0  0  0
  2  8  2  0  0  0
  3  9  2  0  0  0
  4 15  1  0  0  0
  4 18  1  0  0  0
  5  8  1  0  0  0
  5  9  1  0  0  0
  5 26  1  0  0  0
  6 19  1  0  0  0
  6 20  1  0  0  0
  6 21  1  0  0  0
  7 21  2  0  0  0
  7 22  1  0  0  0
  9 10  1  0  0  0
 10 11  1  0  0  0
 11 12  1  0  0  0
 12 13  2  0  0  0
 12 17  1  0  0  0
 13 14  1  0  0  0
 14 15  2  0  0  0
 15 16  1  0  0  0
 16 17  2  0  0  0
 18 19  1  0  0  0
 21 25  1  0  0  0
 22 23  2  0  0  0
 23 24  1  0  0  0
 24 25  2  0  0  0
M  END
>  <CHROM.0>
-70.04636527,-155.77858178,-65.09744723,-114.14897168,157.71293331

>  <CHROM.1>
-170.28210299,-97.60740004,174.42167058,131.63070972,96.22614988,110.99632408
-30.58062355,11.69291018,-8.60034986,11.51980512,2.05012676,0.47176335,-3.05687809

>  <FORMUL>
      BRL    C18 H19 N3 O3 S1

>  <HET>
 BRL  A   1      25

>  <HETNAM>
     BRL 2,4-THIAZOLIDIINEDIONE, 5-[[4-[2-(METHYL-2-PYRIDINYLAMI
   2 BRL NO)ETHOXY]PHENYL]METHYL]-(9CL)

>  <HETSYN>
     BRL BRL49653; ROSIGLITAZONE

>  <Name>
BRL.pdb

>  <RI>
0

>  <Rbt.Current_Directory>
/home/malgorzata/Desktop/rDOCK_IFD/test13

>  <Rbt.Executable>
rbdock ($Id: //depot/dev/client3/rdock/2013.1/src/exe/rbdock.cxx#4 $)

>  <Rbt.Library>
libRbt.so (2013.1, Build901 2013/11/27)

>  <Rbt.Parameter_File>
/home/malgorzata/Desktop/rDock_2013.1_src/data/scripts/soft_docking.prm

>  <Rbt.Receptor>
cavity.prm

>  <SCORE>
-26.2432

>  <SCORE.INTER>
-28.7093

>  <SCORE.INTER.CONST>
1

>  <SCORE.INTER.POLAR>
-0.682049

>  <SCORE.INTER.REPUL>
0

>  <SCORE.INTER.ROT>
7

>  <SCORE.INTER.VDW>
-38.7903

>  <SCORE.INTER.norm>
-1.14837

>  <SCORE.INTRA>
1.7325

>  <SCORE.INTRA.DIHEDRAL>
15.3154

>  <SCORE.INTRA.DIHEDRAL.0>
5.55665

>  <SCORE.INTRA.POLAR>
0

>  <SCORE.INTRA.POLAR.0>
0

>  <SCORE.INTRA.REPUL>
0

>  <SCORE.INTRA.REPUL.0>
0

>  <SCORE.INTRA.VDW>
-1.33057

>  <SCORE.INTRA.VDW.0>
-2.56587

>  <SCORE.INTRA.norm>
0.0693001

>  <SCORE.RESTR>
0

>  <SCORE.RESTR.CAVITY>
0

>  <SCORE.RESTR.norm>
0

>  <SCORE.SYSTEM>
0.733527

>  <SCORE.SYSTEM.CONST>
0

>  <SCORE.SYSTEM.DIHEDRAL>
7.74885

>  <SCORE.SYSTEM.POLAR>
-0.449905

>  <SCORE.SYSTEM.REPUL>
0.17871

>  <SCORE.SYSTEM.VDW>
-2.50477

>  <SCORE.SYSTEM.norm>
0.0293411

>  <SCORE.heavy>
25

>  <SCORE.norm>
-1.04973

$$$$
BRL.pdb
  rDOCK(R)          3D
libRbt.so/2013.1/901 2013/11/27
 26 28  0  0  0  0  0  0  0  0999 V2000
   15.1167   -8.8152    9.9633 S   0  0  0  0  0  0
   13.1611  -10.2869    8.8892 O   0  0  0  0  0  0
   13.5878  -10.1501   13.3398 O   0  0  0  0  0  0
   10.9768   -3.5101   10.7480 O   0  0  0  0  0  0
   13.1879  -10.3142   11.1084 N   0  0  0  0  0  0
   10.1546   -2.0836    7.8145 N   0  0  0  0  0  0
    8.8307   -4.2984    8.1922 N   0  0  0  0  0  0
   13.6797   -9.9218    9.9435 C   0  0  0  0  0  0
   13.8469   -9.8266   12.1689 C   0  0  0  0  0  0
   14.9861   -8.8626   11.8090 C   0  0  0  0  0  0
   14.8825   -7.4242   12.4725 C   0  0  0  0  0  0
   13.8092   -6.4762   11.9753 C   0  0  0  0  0  0
   12.6720   -6.0757   12.7957 C   0  0  0  0  0  0
   11.7657   -5.0864   12.3094 C   0  0  0  0  0  0
   11.9528   -4.4876   11.0069 C   0  0  0  0  0  0
   13.0531   -4.9607   10.1616 C   0  0  0  0  0  0
   13.9753   -5.9432   10.6424 C   0  0  0  0  0  0
   11.0663   -2.1058   10.3156 C   0  0  0  0  0  0
   11.3182   -2.2141    8.7970 C   0  0  0  0  0  0
   10.0140   -0.6025    7.4335 C   0  0  0  0  0  0
    9.1543   -3.2376    7.3568 C   0  0  0  0  0  0
    7.9670   -5.2983    7.8710 C   0  0  0  0  0  0
    7.3104   -5.3189    6.5819 C   0  0  0  0  0  0
    7.5892   -4.2671    5.6511 C   0  0  0  0  0  0
    8.5070   -3.2290    6.0277 C   0  0  0  0  0  0
   12.4086  -10.9102   11.1885 H   0  0  0  0  0  0
  1  8  1  0  0  0
  1 10  1  0  0  0
  2  8  2  0  0  0
  3  9  2  0  0  0
  4 15  1  0  0  0
  4 18  1  0  0  0
  5  8  1  0  0  0
  5  9  1  0  0  0
  5 26  1  0  0  0
  6 19  1  0  0  0
  6 20  1  0  0  0
  6 21  1  0  0  0
  7 21  2  0  0  0
  7 22  1  0  0  0
  9 10  1  0  0  0
 10 11  1  0  0  0
 11 12  1  0  0  0
 12 13  2  0  0  0
 12 17  1  0  0  0
 13 14  1  0  0  0
 14 15  2  0  0  0
 15 16  1  0  0  0
 16 17  2  0  0  0
 18 19  1  0  0  0
 21 25  1  0  0  0
 22 23  2  0  0  0
 23 24  1  0  0  0
 24 25  2  0  0  0
M  END
>  <CHROM.0>
163.67771339,167.03601374,-56.65295667,-24.41880628,-24.89537587

>  <CHROM.1>
127.88210720,78.93509327,90.35040321,29.68720926,53.26185441,112.06528008
97.33700833,11.88568089,-5.96105962,9.83287598,0.58387607,0.81431221,-2.87512611

>  <FORMUL>
      BRL    C18 H19 N3 O3 S1

>  <HET>
 BRL  A   1      25

>  <HETNAM>
     BRL 2,4-THIAZOLIDIINEDIONE, 5-[[4-[2-(METHYL-2-PYRIDINYLAMI
   2 BRL NO)ETHOXY]PHENYL]METHYL]-(9CL)

>  <HETSYN>
     BRL BRL49653; ROSIGLITAZONE

>  <Name>
BRL.pdb

>  <RI>
0

>  <Rbt.Current_Directory>
/home/malgorzata/Desktop/rDOCK_IFD/test13

>  <Rbt.Executable>
rbdock ($Id: //depot/dev/client3/rdock/2013.1/src/exe/rbdock.cxx#4 $)

>  <Rbt.Library>
libRbt.so (2013.1, Build901 2013/11/27)

>  <Rbt.Parameter_File>
/home/malgorzata/Desktop/rDock_2013.1_src/data/scripts/soft_docking.prm

>  <Rbt.Receptor>
cavity.prm

>  <SCORE>
-21.3659

>  <SCORE.INTER>
-21.3634

>  <SCORE.INTER.CONST>
1

>  <SCORE.INTER.POLAR>
0

>  <SCORE.INTER.REPUL>
0

>  <SCORE.INTER.ROT>
7

>  <SCORE.INTER.VDW>
-33.7634

>  <SCORE.INTER.norm>
-0.854535

>  <SCORE.INTRA>
1.87139

>  <SCORE.INTRA.DIHEDRAL>
10.2578

>  <SCORE.INTRA.DIHEDRAL.0>
5.55665

>  <SCORE.INTRA.POLAR>
0

>  <SCORE.INTRA.POLAR.0>
0

>  <SCORE.INTRA.REPUL>
0

>  <SCORE.INTRA.REPUL.0>
0

>  <SCORE.INTRA.VDW>
-0.180173

>  <SCORE.INTRA.VDW.0>
-2.56587

>  <SCORE.INTRA.norm>
0.0748555

>  <SCORE.RESTR>
0

>  <SCORE.RESTR.CAVITY>
0

>  <SCORE.RESTR.norm>
0

>  <SCORE.SYSTEM>
-1.87396

>  <SCORE.SYSTEM.CONST>
0

>  <SCORE.SYSTEM.DIHEDRAL>
2.87387

>  <SCORE.SYSTEM.POLAR>
-0.255153

>  <SCORE.SYSTEM.REPUL>
0.17871

>  <SCORE.SYSTEM.VDW>
-3.33692

>  <SCORE.SYSTEM.norm>
-0.0749583

>  <SCORE.heavy>
25

>  <SCORE.norm>
-0.854638

$$$$
