S58.pdb
  rDOCK(R)          3D
libRbt.so/2013.1/901 2013/11/27
 28 30  0  0  0  0  0  0  0  0999 V2000
   25.0333   33.9484   27.5336 C   0  0  0  0  0  0
   24.4055   32.7989   27.1611 C   0  0  0  0  0  0
   25.7555   33.6336   28.8003 C   0  0  0  0  0  0
   26.5297   34.5595   29.6902 C   0  0  0  0  0  0
   24.5619   30.4566   27.9513 C   0  0  0  0  0  0
   25.1361   29.8543   26.8246 C   0  0  0  0  0  0
   25.0760   28.4760   26.6820 C   0  0  0  0  0  0
   24.4397   27.6981   27.6765 C   0  0  0  0  0  0
   23.8657   28.3055   28.8060 C   0  0  0  0  0  0
   23.9259   29.6946   28.9412 C   0  0  0  0  0  0
   23.5108   32.6692   25.9705 C   0  0  0  0  0  0
   22.8560   31.4366   25.7191 C   0  0  0  0  0  0
   21.8967   31.3412   24.6939 C   0  0  0  0  0  0
   21.5864   32.4616   23.9278 C   0  0  0  0  0  0
   22.2505   33.6729   24.1504 C   0  0  0  0  0  0
   23.2175   33.7806   25.1777 C   0  0  0  0  0  0
   24.6995   31.8147   28.0774 N   0  0  0  0  0  0
   25.5545   32.3740   29.0773 N   0  0  0  0  0  0
   25.3568   25.1895   28.7779 N   0  0  0  0  0  0
   24.8353   25.5201   26.2049 O   0  0  0  0  0  0
   22.9987   25.4785   27.6584 O   0  0  0  0  0  0
   20.1804   32.3818   22.7342 Br  0  0  0  0  0  0
   27.7577   34.7745   29.1554 F   0  0  0  0  0  0
   26.6097   34.0443   30.9270 F   0  0  0  0  0  0
   25.8732   35.7238   29.7434 F   0  0  0  0  0  0
   24.3677   25.8839   27.5050 S   0  0  0  0  0  0
   25.2612   24.2436   29.0046 H   0  0  0  0  0  0
   26.0054   25.7474   29.2588 H   0  0  0  0  0  0
  1  3  1  0  0  0
  2  1  2  0  0  0
  2 17  1  0  0  0
  3 18  2  0  0  0
  3  4  1  0  0  0
  4 23  1  0  0  0
  4 25  1  0  0  0
  5 17  1  0  0  0
  5  6  2  0  0  0
  7  6  1  0  0  0
  8  7  2  0  0  0
  9 10  2  0  0  0
  9  8  1  0  0  0
 10  5  1  0  0  0
 11  2  1  0  0  0
 12 11  1  0  0  0
 13 12  2  0  0  0
 14 15  2  0  0  0
 14 13  1  0  0  0
 15 16  1  0  0  0
 16 11  2  0  0  0
 17 18  1  0  0  0
 19 28  1  0  0  0
 20 26  2  0  0  0
 22 14  1  0  0  0
 24  4  1  0  0  0
 26  8  1  0  0  0
 26 19  1  0  0  0
 26 21  2  0  0  0
 27 19  1  0  0  0
M  END
>  <CHROM.0>
151.71296945,-178.19369844,47.15648653

>  <CHROM.1>
-79.32763265,51.91032382,-176.78871489,113.01716596,163.75920647,23.80315495
31.07593622,26.73589606,-2.62928639,0.85469013,3.08759104

>  <FORMUL>
      S58    C16 H11 Br1 F3 N3 O2 S1

>  <HET>
 S58  A 701      28

>  <HETNAM>
     S58 1-PHENYLSULFONAMIDE-3-TRIFLUOROMETHYL-5-PARABROMOPHENYL
   2 S58 PYRAZOLE

>  <Name>
S58.pdb

>  <RI>
0

>  <Rbt.Current_Directory>
/home/malgorzata/Desktop/rDOCK_IFD/Wyniki/3c_COX2/IFD

>  <Rbt.Executable>
rbdock ($Id: //depot/dev/client3/rdock/2013.1/src/exe/rbdock.cxx#4 $)

>  <Rbt.Library>
libRbt.so (2013.1, Build901 2013/11/27)

>  <Rbt.Parameter_File>
/home/malgorzata/Desktop/rDock_2013.1_src/data/scripts/hard_docking.prm

>  <Rbt.Receptor>
cavity.prm

>  <SCORE>
-10.774

>  <SCORE.INTER>
-9.82864

>  <SCORE.INTER.CONST>
1

>  <SCORE.INTER.POLAR>
-0.959166

>  <SCORE.INTER.REPUL>
0.010085

>  <SCORE.INTER.ROT>
5

>  <SCORE.INTER.VDW>
-17.0179

>  <SCORE.INTER.norm>
-0.378024

>  <SCORE.INTRA>
-2.19589

>  <SCORE.INTRA.DIHEDRAL>
-5.56824

>  <SCORE.INTRA.DIHEDRAL.0>
18.1022

>  <SCORE.INTRA.POLAR>
0

>  <SCORE.INTRA.POLAR.0>
0

>  <SCORE.INTRA.REPUL>
0

>  <SCORE.INTRA.REPUL.0>
0

>  <SCORE.INTRA.VDW>
0.588233

>  <SCORE.INTRA.VDW.0>
-2.81782

>  <SCORE.INTRA.norm>
-0.0844573

>  <SCORE.RESTR>
3.98771

>  <SCORE.RESTR.CAVITY>
3.98771

>  <SCORE.RESTR.norm>
0.153374

>  <SCORE.SYSTEM>
-2.73723

>  <SCORE.SYSTEM.CONST>
0

>  <SCORE.SYSTEM.DIHEDRAL>
0.811417

>  <SCORE.SYSTEM.POLAR>
-0.560426

>  <SCORE.SYSTEM.REPUL>
0.0342334

>  <SCORE.SYSTEM.VDW>
-1.40866

>  <SCORE.SYSTEM.norm>
-0.105278

>  <SCORE.heavy>
26

>  <SCORE.norm>
-0.414386

$$$$
S58.pdb
  rDOCK(R)          3D
libRbt.so/2013.1/901 2013/11/27
 28 30  0  0  0  0  0  0  0  0999 V2000
   25.6078   32.7430   27.6541 C   0  0  0  0  0  0
   25.2123   31.5220   27.1993 C   0  0  0  0  0  0
   24.6393   33.7279   27.0908 C   0  0  0  0  0  0
   24.6592   35.2236   27.1956 C   0  0  0  0  0  0
   23.1714   30.7314   26.0395 C   0  0  0  0  0  0
   22.7705   29.7926   26.9985 C   0  0  0  0  0  0
   21.8066   28.8507   26.6706 C   0  0  0  0  0  0
   21.2399   28.8533   25.3752 C   0  0  0  0  0  0
   21.6436   29.7973   24.4161 C   0  0  0  0  0  0
   22.6181   30.7403   24.7516 C   0  0  0  0  0  0
   25.9349   30.2416   27.4703 C   0  0  0  0  0  0
   25.6436   29.0954   26.6879 C   0  0  0  0  0  0
   26.4172   27.9281   26.8274 C   0  0  0  0  0  0
   27.4747   27.9008   27.7326 C   0  0  0  0  0  0
   27.7485   29.0178   28.5295 C   0  0  0  0  0  0
   26.9770   30.1967   28.3988 C   0  0  0  0  0  0
   24.0823   31.6790   26.4293 N   0  0  0  0  0  0
   23.7511   33.0693   26.3974 N   0  0  0  0  0  0
   18.4025   28.3080   25.3718 N   0  0  0  0  0  0
   20.2269   26.4097   25.6368 O   0  0  0  0  0  0
   20.0317   27.3999   23.5228 O   0  0  0  0  0  0
   28.6112   26.4463   27.7544 Br  0  0  0  0  0  0
   24.9608   35.7551   25.9845 F   0  0  0  0  0  0
   25.5363   35.6044   28.1375 F   0  0  0  0  0  0
   23.4343   35.6276   27.5503 F   0  0  0  0  0  0
   19.9617   27.6279   24.9388 S   0  0  0  0  0  0
   17.8239   28.6761   24.6754 H   0  0  0  0  0  0
   18.1110   28.3168   26.3089 H   0  0  0  0  0  0
  1  3  1  0  0  0
  2  1  2  0  0  0
  2 17  1  0  0  0
  3 18  2  0  0  0
  3  4  1  0  0  0
  4 23  1  0  0  0
  4 25  1  0  0  0
  5 17  1  0  0  0
  5  6  2  0  0  0
  7  6  1  0  0  0
  8  7  2  0  0  0
  9 10  2  0  0  0
  9  8  1  0  0  0
 10  5  1  0  0  0
 11  2  1  0  0  0
 12 11  1  0  0  0
 13 12  2  0  0  0
 14 15  2  0  0  0
 14 13  1  0  0  0
 15 16  1  0  0  0
 16 11  2  0  0  0
 17 18  1  0  0  0
 19 28  1  0  0  0
 20 26  2  0  0  0
 22 14  1  0  0  0
 24  4  1  0  0  0
 26  8  1  0  0  0
 26 19  1  0  0  0
 26 21  2  0  0  0
 27 19  1  0  0  0
M  END
>  <CHROM.0>
114.90668537,-67.68750969,62.09070254

>  <CHROM.1>
109.38202397,42.43899967,-164.10505717,88.58015743,102.70985455,24.40129444
29.95073606,26.66291902,-0.37492950,-0.35025914,0.08331731

>  <FORMUL>
      S58    C16 H11 Br1 F3 N3 O2 S1

>  <HET>
 S58  A 701      28

>  <HETNAM>
     S58 1-PHENYLSULFONAMIDE-3-TRIFLUOROMETHYL-5-PARABROMOPHENYL
   2 S58 PYRAZOLE

>  <Name>
S58.pdb

>  <RI>
0

>  <Rbt.Current_Directory>
/home/malgorzata/Desktop/rDOCK_IFD/Wyniki/3c_COX2/IFD

>  <Rbt.Executable>
rbdock ($Id: //depot/dev/client3/rdock/2013.1/src/exe/rbdock.cxx#4 $)

>  <Rbt.Library>
libRbt.so (2013.1, Build901 2013/11/27)

>  <Rbt.Parameter_File>
/home/malgorzata/Desktop/rDock_2013.1_src/data/scripts/hard_docking.prm

>  <Rbt.Receptor>
cavity.prm

>  <SCORE>
-14.8888

>  <SCORE.INTER>
-8.30873

>  <SCORE.INTER.CONST>
1

>  <SCORE.INTER.POLAR>
0

>  <SCORE.INTER.REPUL>
0

>  <SCORE.INTER.ROT>
5

>  <SCORE.INTER.VDW>
-18.7087

>  <SCORE.INTER.norm>
-0.319566

>  <SCORE.INTRA>
-2.75343

>  <SCORE.INTRA.DIHEDRAL>
-6.83515

>  <SCORE.INTRA.DIHEDRAL.0>
18.1022

>  <SCORE.INTRA.POLAR>
0

>  <SCORE.INTRA.POLAR.0>
0

>  <SCORE.INTRA.REPUL>
0

>  <SCORE.INTRA.REPUL.0>
0

>  <SCORE.INTRA.VDW>
0.664139

>  <SCORE.INTRA.VDW.0>
-2.81782

>  <SCORE.INTRA.norm>
-0.105901

>  <SCORE.RESTR>
0

>  <SCORE.RESTR.CAVITY>
0

>  <SCORE.RESTR.norm>
0

>  <SCORE.SYSTEM>
-3.82665

>  <SCORE.SYSTEM.CONST>
0

>  <SCORE.SYSTEM.DIHEDRAL>
1.08773

>  <SCORE.SYSTEM.POLAR>
-1.185

>  <SCORE.SYSTEM.VDW>
-0.341529

>  <SCORE.SYSTEM.norm>
-0.147179

>  <SCORE.heavy>
26

>  <SCORE.norm>
-0.572647

$$$$
S58.pdb
  rDOCK(R)          3D
libRbt.so/2013.1/901 2013/11/27
 28 30  0  0  0  0  0  0  0  0999 V2000
   27.9387   28.6266   28.2934 C   0  0  0  0  0  0
   27.5606   29.8736   28.6888 C   0  0  0  0  0  0
   26.9510   28.2034   27.2587 C   0  0  0  0  0  0
   26.8388   26.8825   26.5580 C   0  0  0  0  0  0
   25.9195   31.5022   27.8002 C   0  0  0  0  0  0
   26.8121   32.5815   27.8091 C   0  0  0  0  0  0
   26.3355   33.8635   27.5792 C   0  0  0  0  0  0
   24.9571   34.0629   27.3356 C   0  0  0  0  0  0
   24.0647   32.9779   27.3262 C   0  0  0  0  0  0
   24.5507   31.6897   27.5630 C   0  0  0  0  0  0
   28.2373   30.6642   29.7621 C   0  0  0  0  0  0
   29.6288   30.4990   29.9801 C   0  0  0  0  0  0
   30.3088   31.3405   30.8801 C   0  0  0  0  0  0
   29.6140   32.3411   31.5543 C   0  0  0  0  0  0
   28.2354   32.4898   31.3669 C   0  0  0  0  0  0
   27.5408   31.6492   30.4654 C   0  0  0  0  0  0
   26.4466   30.2484   27.9725 N   0  0  0  0  0  0
   26.1063   29.1827   27.0826 N   0  0  0  0  0  0
   25.0348   36.8149   28.2123 N   0  0  0  0  0  0
   22.8965   35.7252   27.0978 O   0  0  0  0  0  0
   24.7296   36.1276   25.6958 O   0  0  0  0  0  0
   30.5496   33.5706   32.5645 Br  0  0  0  0  0  0
   28.0475   26.2667   26.5634 F   0  0  0  0  0  0
   26.3795   27.0644   25.3100 F   0  0  0  0  0  0
   25.9682   26.1285   27.2384 F   0  0  0  0  0  0
   24.3229   35.7431   27.0183 S   0  0  0  0  0  0
   24.7002   36.8080   29.1306 H   0  0  0  0  0  0
   25.7677   37.4170   27.9603 H   0  0  0  0  0  0
  1  3  1  0  0  0
  2  1  2  0  0  0
  2 17  1  0  0  0
  3 18  2  0  0  0
  3  4  1  0  0  0
  4 23  1  0  0  0
  4 25  1  0  0  0
  5 17  1  0  0  0
  5  6  2  0  0  0
  7  6  1  0  0  0
  8  7  2  0  0  0
  9 10  2  0  0  0
  9  8  1  0  0  0
 10  5  1  0  0  0
 11  2  1  0  0  0
 12 11  1  0  0  0
 13 12  2  0  0  0
 14 15  2  0  0  0
 14 13  1  0  0  0
 15 16  1  0  0  0
 16 11  2  0  0  0
 17 18  1  0  0  0
 19 28  1  0  0  0
 20 26  2  0  0  0
 22 14  1  0  0  0
 24  4  1  0  0  0
 26  8  1  0  0  0
 26 19  1  0  0  0
 26 21  2  0  0  0
 27 19  1  0  0  0
M  END
>  <CHROM.0>
-71.22765266,-67.89150059,62.04653867

>  <CHROM.1>
-24.61842524,30.63404136,31.05343167,-45.61065833,-75.92414758,27.17337359
31.80995866,28.75306736,-1.94799641,-0.75046781,0.31977649

>  <FORMUL>
      S58    C16 H11 Br1 F3 N3 O2 S1

>  <HET>
 S58  A 701      28

>  <HETNAM>
     S58 1-PHENYLSULFONAMIDE-3-TRIFLUOROMETHYL-5-PARABROMOPHENYL
   2 S58 PYRAZOLE

>  <Name>
S58.pdb

>  <RI>
0

>  <Rbt.Current_Directory>
/home/malgorzata/Desktop/rDOCK_IFD/Wyniki/3c_COX2/IFD

>  <Rbt.Executable>
rbdock ($Id: //depot/dev/client3/rdock/2013.1/src/exe/rbdock.cxx#4 $)

>  <Rbt.Library>
libRbt.so (2013.1, Build901 2013/11/27)

>  <Rbt.Parameter_File>
/home/malgorzata/Desktop/rDock_2013.1_src/data/scripts/hard_docking.prm

>  <Rbt.Receptor>
cavity.prm

>  <SCORE>
-14.228

>  <SCORE.INTER>
-8.32612

>  <SCORE.INTER.CONST>
1

>  <SCORE.INTER.POLAR>
-1

>  <SCORE.INTER.REPUL>
0

>  <SCORE.INTER.ROT>
5

>  <SCORE.INTER.VDW>
-15.3261

>  <SCORE.INTER.norm>
-0.320235

>  <SCORE.INTRA>
-2.79154

>  <SCORE.INTRA.DIHEDRAL>
-7.19046

>  <SCORE.INTRA.DIHEDRAL.0>
18.1022

>  <SCORE.INTRA.POLAR>
0

>  <SCORE.INTRA.POLAR.0>
0

>  <SCORE.INTRA.REPUL>
0

>  <SCORE.INTRA.REPUL.0>
0

>  <SCORE.INTRA.VDW>
0.803692

>  <SCORE.INTRA.VDW.0>
-2.81782

>  <SCORE.INTRA.norm>
-0.107367

>  <SCORE.RESTR>
0.33721

>  <SCORE.RESTR.CAVITY>
0.33721

>  <SCORE.RESTR.norm>
0.0129696

>  <SCORE.SYSTEM>
-3.4476

>  <SCORE.SYSTEM.CONST>
0

>  <SCORE.SYSTEM.DIHEDRAL>
1.1061

>  <SCORE.SYSTEM.POLAR>
-1.18484

>  <SCORE.SYSTEM.VDW>
0.0277936

>  <SCORE.SYSTEM.norm>
-0.1326

>  <SCORE.heavy>
26

>  <SCORE.norm>
-0.547233

$$$$
S58.pdb
  rDOCK(R)          3D
libRbt.so/2013.1/901 2013/11/27
 28 30  0  0  0  0  0  0  0  0999 V2000
   28.3580   30.9853   32.1548 C   0  0  0  0  0  0
   27.9710   31.1887   30.8651 C   0  0  0  0  0  0
   28.0907   32.2648   32.8736 C   0  0  0  0  0  0
   28.4157   32.6260   34.2922 C   0  0  0  0  0  0
   26.6986   32.9968   29.7486 C   0  0  0  0  0  0
   25.5117   33.6352   30.1297 C   0  0  0  0  0  0
   24.7204   34.2387   29.1637 C   0  0  0  0  0  0
   25.1241   34.2045   27.8090 C   0  0  0  0  0  0
   26.3160   33.5642   27.4304 C   0  0  0  0  0  0
   27.1060   32.9545   28.4080 C   0  0  0  0  0  0
   28.1152   30.1831   29.7683 C   0  0  0  0  0  0
   29.1211   29.1878   29.8602 C   0  0  0  0  0  0
   29.1744   28.1462   28.9154 C   0  0  0  0  0  0
   28.2334   28.0903   27.8907 C   0  0  0  0  0  0
   27.2569   29.0859   27.7764 C   0  0  0  0  0  0
   27.1940   30.1385   28.7198 C   0  0  0  0  0  0
   27.4766   32.4677   30.7457 N   0  0  0  0  0  0
   27.5578   33.1009   32.0247 N   0  0  0  0  0  0
   22.7432   35.7740   27.3446 N   0  0  0  0  0  0
   23.6695   34.0214   25.5917 O   0  0  0  0  0  0
   24.9055   35.9919   25.8698 O   0  0  0  0  0  0
   28.1810   26.6103   26.7887 Br  0  0  0  0  0  0
   28.3528   31.5131   35.0651 F   0  0  0  0  0  0
   27.5762   33.5796   34.7251 F   0  0  0  0  0  0
   29.6665   33.0996   34.3199 F   0  0  0  0  0  0
   24.0977   35.0073   26.5331 S   0  0  0  0  0  0
   22.2616   36.5007   26.9027 H   0  0  0  0  0  0
   22.4682   35.4731   28.2374 H   0  0  0  0  0  0
  1  3  1  0  0  0
  2  1  2  0  0  0
  2 17  1  0  0  0
  3 18  2  0  0  0
  3  4  1  0  0  0
  4 23  1  0  0  0
  4 25  1  0  0  0
  5 17  1  0  0  0
  5  6  2  0  0  0
  7  6  1  0  0  0
  8  7  2  0  0  0
  9 10  2  0  0  0
  9  8  1  0  0  0
 10  5  1  0  0  0
 11  2  1  0  0  0
 12 11  1  0  0  0
 13 12  2  0  0  0
 14 15  2  0  0  0
 14 13  1  0  0  0
 15 16  1  0  0  0
 16 11  2  0  0  0
 17 18  1  0  0  0
 19 28  1  0  0  0
 20 26  2  0  0  0
 22 14  1  0  0  0
 24  4  1  0  0  0
 26  8  1  0  0  0
 26 19  1  0  0  0
 26 21  2  0  0  0
 27 19  1  0  0  0
M  END
>  <CHROM.0>
-104.63892221,-68.62438128,47.15814451

>  <CHROM.1>
-31.70828825,127.01479154,-25.42611598,2.50572953,158.62653852,27.03151881
31.50289626,29.33340780,-0.75545466,-0.99170290,0.87318162

>  <FORMUL>
      S58    C16 H11 Br1 F3 N3 O2 S1

>  <HET>
 S58  A 701      28

>  <HETNAM>
     S58 1-PHENYLSULFONAMIDE-3-TRIFLUOROMETHYL-5-PARABROMOPHENYL
   2 S58 PYRAZOLE

>  <Name>
S58.pdb

>  <RI>
0

>  <Rbt.Current_Directory>
/home/malgorzata/Desktop/rDOCK_IFD/Wyniki/3c_COX2/IFD

>  <Rbt.Executable>
rbdock ($Id: //depot/dev/client3/rdock/2013.1/src/exe/rbdock.cxx#4 $)

>  <Rbt.Library>
libRbt.so (2013.1, Build901 2013/11/27)

>  <Rbt.Parameter_File>
/home/malgorzata/Desktop/rDock_2013.1_src/data/scripts/hard_docking.prm

>  <Rbt.Receptor>
cavity.prm

>  <SCORE>
-9.16469

>  <SCORE.INTER>
-4.78698

>  <SCORE.INTER.CONST>
1

>  <SCORE.INTER.POLAR>
-0.413117

>  <SCORE.INTER.REPUL>
0

>  <SCORE.INTER.ROT>
5

>  <SCORE.INTER.VDW>
-13.7824

>  <SCORE.INTER.norm>
-0.184114

>  <SCORE.INTRA>
-1.60574

>  <SCORE.INTRA.DIHEDRAL>
-5.37705

>  <SCORE.INTRA.DIHEDRAL.0>
18.1022

>  <SCORE.INTRA.POLAR>
0

>  <SCORE.INTRA.POLAR.0>
0

>  <SCORE.INTRA.REPUL>
0

>  <SCORE.INTRA.REPUL.0>
0

>  <SCORE.INTRA.VDW>
1.08279

>  <SCORE.INTRA.VDW.0>
-2.81782

>  <SCORE.INTRA.norm>
-0.0617591

>  <SCORE.RESTR>
0.856618

>  <SCORE.RESTR.CAVITY>
0.856618

>  <SCORE.RESTR.norm>
0.0329469

>  <SCORE.SYSTEM>
-3.62859

>  <SCORE.SYSTEM.CONST>
0

>  <SCORE.SYSTEM.DIHEDRAL>
1.15513

>  <SCORE.SYSTEM.POLAR>
-1.06426

>  <SCORE.SYSTEM.VDW>
-0.587681

>  <SCORE.SYSTEM.norm>
-0.139561

>  <SCORE.heavy>
26

>  <SCORE.norm>
-0.352488

$$$$
S58.pdb
  rDOCK(R)          3D
libRbt.so/2013.1/901 2013/11/27
 28 30  0  0  0  0  0  0  0  0999 V2000
   22.0777   31.9485   26.9985 C   0  0  0  0  0  0
   22.7310   30.8205   27.3924 C   0  0  0  0  0  0
   23.1357   32.9592   26.7079 C   0  0  0  0  0  0
   22.9728   34.4008   26.3290 C   0  0  0  0  0  0
   25.1133   30.1443   27.3441 C   0  0  0  0  0  0
   26.3027   30.5163   27.9835 C   0  0  0  0  0  0
   27.3492   29.6094   28.0600 C   0  0  0  0  0  0
   27.2002   28.3218   27.4953 C   0  0  0  0  0  0
   26.0053   27.9515   26.8557 C   0  0  0  0  0  0
   24.9567   28.8714   26.7782 C   0  0  0  0  0  0
   22.0572   29.5635   27.8407 C   0  0  0  0  0  0
   20.7918   29.2181   27.3016 C   0  0  0  0  0  0
   20.2139   27.9694   27.5968 C   0  0  0  0  0  0
   20.8890   27.0689   28.4164 C   0  0  0  0  0  0
   22.1236   27.4154   28.9762 C   0  0  0  0  0  0
   22.7142   28.6682   28.6873 C   0  0  0  0  0  0
   24.0868   31.0530   27.3467 N   0  0  0  0  0  0
   24.2967   32.3956   26.9028 N   0  0  0  0  0  0
   27.9449   25.6795   28.3960 N   0  0  0  0  0  0
   29.6476   27.7039   28.3283 O   0  0  0  0  0  0
   28.9892   26.8076   26.2665 O   0  0  0  0  0  0
   20.2252   25.3588   28.6232 Br  0  0  0  0  0  0
   24.1943   34.9852   26.2486 F   0  0  0  0  0  0
   22.1830   35.0212   27.2196 F   0  0  0  0  0  0
   22.3931   34.4468   25.1244 F   0  0  0  0  0  0
   28.5653   27.1173   27.6031 S   0  0  0  0  0  0
   27.7323   24.8867   27.8652 H   0  0  0  0  0  0
   27.8143   25.6697   29.3687 H   0  0  0  0  0  0
  1  3  1  0  0  0
  2  1  2  0  0  0
  2 17  1  0  0  0
  3 18  2  0  0  0
  3  4  1  0  0  0
  4 23  1  0  0  0
  4 25  1  0  0  0
  5 17  1  0  0  0
  5  6  2  0  0  0
  7  6  1  0  0  0
  8  7  2  0  0  0
  9 10  2  0  0  0
  9  8  1  0  0  0
 10  5  1  0  0  0
 11  2  1  0  0  0
 12 11  1  0  0  0
 13 12  2  0  0  0
 14 15  2  0  0  0
 14 13  1  0  0  0
 15 16  1  0  0  0
 16 11  2  0  0  0
 17 18  1  0  0  0
 19 28  1  0  0  0
 20 26  2  0  0  0
 22 14  1  0  0  0
 24  4  1  0  0  0
 26  8  1  0  0  0
 26 19  1  0  0  0
 26 21  2  0  0  0
 27 19  1  0  0  0
M  END
>  <CHROM.0>
-107.42575902,-67.74217988,-77.19315946

>  <CHROM.1>
175.64167615,-146.66681972,30.77634974,123.14950606,103.29900475,23.84280069
29.19144715,27.56173432,1.52830181,0.06505256,-0.22558503

>  <FORMUL>
      S58    C16 H11 Br1 F3 N3 O2 S1

>  <HET>
 S58  A 701      28

>  <HETNAM>
     S58 1-PHENYLSULFONAMIDE-3-TRIFLUOROMETHYL-5-PARABROMOPHENYL
   2 S58 PYRAZOLE

>  <Name>
S58.pdb

>  <RI>
0

>  <Rbt.Current_Directory>
/home/malgorzata/Desktop/rDOCK_IFD/Wyniki/3c_COX2/IFD

>  <Rbt.Executable>
rbdock ($Id: //depot/dev/client3/rdock/2013.1/src/exe/rbdock.cxx#4 $)

>  <Rbt.Library>
libRbt.so (2013.1, Build901 2013/11/27)

>  <Rbt.Parameter_File>
/home/malgorzata/Desktop/rDock_2013.1_src/data/scripts/hard_docking.prm

>  <Rbt.Receptor>
cavity.prm

>  <SCORE>
-11.7805

>  <SCORE.INTER>
-10.2549

>  <SCORE.INTER.CONST>
1

>  <SCORE.INTER.POLAR>
-1.53873

>  <SCORE.INTER.REPUL>
0.000138608

>  <SCORE.INTER.ROT>
5

>  <SCORE.INTER.VDW>
-15.4239

>  <SCORE.INTER.norm>
-0.39442

>  <SCORE.INTRA>
-2.85364

>  <SCORE.INTRA.DIHEDRAL>
-6.71938

>  <SCORE.INTRA.DIHEDRAL.0>
18.1022

>  <SCORE.INTRA.POLAR>
0

>  <SCORE.INTRA.POLAR.0>
0

>  <SCORE.INTRA.REPUL>
0

>  <SCORE.INTRA.REPUL.0>
0

>  <SCORE.INTRA.VDW>
0.506056

>  <SCORE.INTRA.VDW.0>
-2.81782

>  <SCORE.INTRA.norm>
-0.109755

>  <SCORE.RESTR>
0.335472

>  <SCORE.RESTR.CAVITY>
0.335472

>  <SCORE.RESTR.norm>
0.0129028

>  <SCORE.SYSTEM>
0.992616

>  <SCORE.SYSTEM.CONST>
0

>  <SCORE.SYSTEM.DIHEDRAL>
1.08356

>  <SCORE.SYSTEM.POLAR>
-0.501255

>  <SCORE.SYSTEM.REPUL>
0.598505

>  <SCORE.SYSTEM.VDW>
-0.837421

>  <SCORE.SYSTEM.norm>
0.0381775

>  <SCORE.heavy>
26

>  <SCORE.norm>
-0.453095

$$$$
S58.pdb
  rDOCK(R)          3D
libRbt.so/2013.1/901 2013/11/27
 28 30  0  0  0  0  0  0  0  0999 V2000
   24.4976   34.3059   27.8253 C   0  0  0  0  0  0
   25.6178   33.5420   27.9517 C   0  0  0  0  0  0
   23.4814   33.4427   27.1563 C   0  0  0  0  0  0
   22.1037   33.8090   26.6914 C   0  0  0  0  0  0
   26.0596   31.1260   27.6308 C   0  0  0  0  0  0
   25.8435   30.0884   26.7151 C   0  0  0  0  0  0
   26.5686   28.9120   26.8327 C   0  0  0  0  0  0
   27.5178   28.7776   27.8720 C   0  0  0  0  0  0
   27.7329   29.8209   28.7880 C   0  0  0  0  0  0
   26.9959   31.0014   28.6666 C   0  0  0  0  0  0
   26.9139   34.0253   28.5184 C   0  0  0  0  0  0
   26.9084   34.8466   29.6745 C   0  0  0  0  0  0
   28.1187   35.1854   30.3076 C   0  0  0  0  0  0
   29.3243   34.7085   29.8001 C   0  0  0  0  0  0
   29.3393   33.9229   28.6423 C   0  0  0  0  0  0
   28.1290   33.5766   27.9966 C   0  0  0  0  0  0
   25.3630   32.2908   27.4376 N   0  0  0  0  0  0
   24.0148   32.2672   26.9629 N   0  0  0  0  0  0
   27.4201   26.0017   28.6673 N   0  0  0  0  0  0
   29.6052   27.4786   28.8824 O   0  0  0  0  0  0
   28.9476   26.8737   26.7169 O   0  0  0  0  0  0
   30.8801   34.9796   30.7559 Br  0  0  0  0  0  0
   22.1898   34.4815   25.5165 F   0  0  0  0  0  0
   21.4806   34.5335   27.6339 F   0  0  0  0  0  0
   21.4224   32.6755   26.4901 F   0  0  0  0  0  0
   28.4863   27.2401   28.0265 S   0  0  0  0  0  0
   26.7980   26.2231   29.3880 H   0  0  0  0  0  0
   27.4459   25.0911   28.3023 H   0  0  0  0  0  0
  1  3  1  0  0  0
  2  1  2  0  0  0
  2 17  1  0  0  0
  3 18  2  0  0  0
  3  4  1  0  0  0
  4 23  1  0  0  0
  4 25  1  0  0  0
  5 17  1  0  0  0
  5  6  2  0  0  0
  7  6  1  0  0  0
  8  7  2  0  0  0
  9 10  2  0  0  0
  9  8  1  0  0  0
 10  5  1  0  0  0
 11  2  1  0  0  0
 12 11  1  0  0  0
 13 12  2  0  0  0
 14 15  2  0  0  0
 14 13  1  0  0  0
 15 16  1  0  0  0
 16 11  2  0  0  0
 17 18  1  0  0  0
 19 28  1  0  0  0
 20 26  2  0  0  0
 22 14  1  0  0  0
 24  4  1  0  0  0
 26  8  1  0  0  0
 26 19  1  0  0  0
 26 21  2  0  0  0
 27 19  1  0  0  0
M  END
>  <CHROM.0>
124.19985546,-69.01558564,45.80108046

>  <CHROM.1>
78.40008126,-161.94962139,42.07640164,-74.29059509,-41.80066074,26.97447871
32.14144157,28.36037320,3.08837105,0.40491392,-2.92685752

>  <FORMUL>
      S58    C16 H11 Br1 F3 N3 O2 S1

>  <HET>
 S58  A 701      28

>  <HETNAM>
     S58 1-PHENYLSULFONAMIDE-3-TRIFLUOROMETHYL-5-PARABROMOPHENYL
   2 S58 PYRAZOLE

>  <Name>
S58.pdb

>  <RI>
0

>  <Rbt.Current_Directory>
/home/malgorzata/Desktop/rDOCK_IFD/Wyniki/3c_COX2/IFD

>  <Rbt.Executable>
rbdock ($Id: //depot/dev/client3/rdock/2013.1/src/exe/rbdock.cxx#4 $)

>  <Rbt.Library>
libRbt.so (2013.1, Build901 2013/11/27)

>  <Rbt.Parameter_File>
/home/malgorzata/Desktop/rDock_2013.1_src/data/scripts/hard_docking.prm

>  <Rbt.Receptor>
cavity.prm

>  <SCORE>
-12.7771

>  <SCORE.INTER>
-6.27656

>  <SCORE.INTER.CONST>
1

>  <SCORE.INTER.POLAR>
0

>  <SCORE.INTER.REPUL>
0

>  <SCORE.INTER.ROT>
5

>  <SCORE.INTER.VDW>
-16.6766

>  <SCORE.INTER.norm>
-0.241406

>  <SCORE.INTRA>
-2.7805

>  <SCORE.INTRA.DIHEDRAL>
-7.33803

>  <SCORE.INTRA.DIHEDRAL.0>
18.1022

>  <SCORE.INTRA.POLAR>
0

>  <SCORE.INTRA.POLAR.0>
0

>  <SCORE.INTRA.REPUL>
0

>  <SCORE.INTRA.REPUL.0>
0

>  <SCORE.INTRA.VDW>
0.88852

>  <SCORE.INTRA.VDW.0>
-2.81782

>  <SCORE.INTRA.norm>
-0.106942

>  <SCORE.RESTR>
0.209854

>  <SCORE.RESTR.CAVITY>
0.209854

>  <SCORE.RESTR.norm>
0.00807129

>  <SCORE.SYSTEM>
-3.92986

>  <SCORE.SYSTEM.CONST>
0

>  <SCORE.SYSTEM.DIHEDRAL>
1.18532

>  <SCORE.SYSTEM.POLAR>
-1.05977

>  <SCORE.SYSTEM.VDW>
-0.919307

>  <SCORE.SYSTEM.norm>
-0.151148

>  <SCORE.heavy>
26

>  <SCORE.norm>
-0.491425

$$$$
S58.pdb
  rDOCK(R)          3D
libRbt.so/2013.1/901 2013/11/27
 28 30  0  0  0  0  0  0  0  0999 V2000
   25.7655   27.6746   26.7163 C   0  0  0  0  0  0
   25.0678   28.8402   26.6218 C   0  0  0  0  0  0
   27.1493   28.0528   27.1254 C   0  0  0  0  0  0
   28.3517   27.1707   27.2833 C   0  0  0  0  0  0
   25.5674   31.1679   27.3053 C   0  0  0  0  0  0
   26.6037   32.1087   27.3576 C   0  0  0  0  0  0
   26.3098   33.4327   27.6478 C   0  0  0  0  0  0
   24.9691   33.8151   27.8831 C   0  0  0  0  0  0
   23.9319   32.8690   27.8287 C   0  0  0  0  0  0
   24.2354   31.5362   27.5403 C   0  0  0  0  0  0
   23.6434   28.9420   26.1794 C   0  0  0  0  0  0
   22.6613   28.1218   26.7907 C   0  0  0  0  0  0
   21.2984   28.3099   26.4948 C   0  0  0  0  0  0
   20.9133   29.3075   25.6032 C   0  0  0  0  0  0
   21.8792   30.1001   24.9734 C   0  0  0  0  0  0
   23.2524   29.9197   25.2622 C   0  0  0  0  0  0
   25.8998   29.8847   26.9557 N   0  0  0  0  0  0
   27.1859   29.3488   27.2753 N   0  0  0  0  0  0
   24.9138   36.4971   26.8101 N   0  0  0  0  0  0
   25.3502   35.9857   29.3694 O   0  0  0  0  0  0
   23.1742   35.6317   28.5773 O   0  0  0  0  0  0
   19.1195   29.6857   25.3864 Br  0  0  0  0  0  0
   28.9211   26.9655   26.0694 F   0  0  0  0  0  0
   27.9976   26.0154   27.8677 F   0  0  0  0  0  0
   29.2283   27.8068   28.0684 F   0  0  0  0  0  0
   24.5707   35.5562   28.2517 S   0  0  0  0  0  0
   25.5611   37.2283   26.8512 H   0  0  0  0  0  0
   24.4598   36.2889   25.9653 H   0  0  0  0  0  0
  1  3  1  0  0  0
  2  1  2  0  0  0
  2 17  1  0  0  0
  3 18  2  0  0  0
  3  4  1  0  0  0
  4 23  1  0  0  0
  4 25  1  0  0  0
  5 17  1  0  0  0
  5  6  2  0  0  0
  7  6  1  0  0  0
  8  7  2  0  0  0
  9 10  2  0  0  0
  9  8  1  0  0  0
 10  5  1  0  0  0
 11  2  1  0  0  0
 12 11  1  0  0  0
 13 12  2  0  0  0
 14 15  2  0  0  0
 14 13  1  0  0  0
 15 16  1  0  0  0
 16 11  2  0  0  0
 17 18  1  0  0  0
 19 28  1  0  0  0
 20 26  2  0  0  0
 22 14  1  0  0  0
 24  4  1  0  0  0
 26  8  1  0  0  0
 26 19  1  0  0  0
 26 21  2  0  0  0
 27 19  1  0  0  0
M  END
>  <CHROM.0>
-82.63639468,-65.59085805,44.35833326

>  <CHROM.1>
82.13068296,-168.35718180,51.14267014,66.57798530,-121.12002205,24.18547888
30.62370593,26.88738200,0.40685724,0.25039471,-2.92266586

>  <FORMUL>
      S58    C16 H11 Br1 F3 N3 O2 S1

>  <HET>
 S58  A 701      28

>  <HETNAM>
     S58 1-PHENYLSULFONAMIDE-3-TRIFLUOROMETHYL-5-PARABROMOPHENYL
   2 S58 PYRAZOLE

>  <Name>
S58.pdb

>  <RI>
0

>  <Rbt.Current_Directory>
/home/malgorzata/Desktop/rDOCK_IFD/Wyniki/3c_COX2/IFD

>  <Rbt.Executable>
rbdock ($Id: //depot/dev/client3/rdock/2013.1/src/exe/rbdock.cxx#4 $)

>  <Rbt.Library>
libRbt.so (2013.1, Build901 2013/11/27)

>  <Rbt.Parameter_File>
/home/malgorzata/Desktop/rDock_2013.1_src/data/scripts/hard_docking.prm

>  <Rbt.Receptor>
cavity.prm

>  <SCORE>
-14.6592

>  <SCORE.INTER>
-8.67942

>  <SCORE.INTER.CONST>
1

>  <SCORE.INTER.POLAR>
-0.931751

>  <SCORE.INTER.REPUL>
0

>  <SCORE.INTER.ROT>
5

>  <SCORE.INTER.VDW>
-15.9115

>  <SCORE.INTER.norm>
-0.333824

>  <SCORE.INTRA>
-2.50504

>  <SCORE.INTRA.DIHEDRAL>
-6.32109

>  <SCORE.INTRA.DIHEDRAL.0>
18.1022

>  <SCORE.INTRA.POLAR>
0

>  <SCORE.INTRA.POLAR.0>
0

>  <SCORE.INTRA.REPUL>
0

>  <SCORE.INTRA.REPUL.0>
0

>  <SCORE.INTRA.VDW>
0.655511

>  <SCORE.INTRA.VDW.0>
-2.81782

>  <SCORE.INTRA.norm>
-0.0963475

>  <SCORE.RESTR>
0.0956495

>  <SCORE.RESTR.CAVITY>
0.0956495

>  <SCORE.RESTR.norm>
0.00367883

>  <SCORE.SYSTEM>
-3.57041

>  <SCORE.SYSTEM.CONST>
0

>  <SCORE.SYSTEM.DIHEDRAL>
0.946815

>  <SCORE.SYSTEM.POLAR>
-1.04158

>  <SCORE.SYSTEM.VDW>
-0.50246

>  <SCORE.SYSTEM.norm>
-0.137323

>  <SCORE.heavy>
26

>  <SCORE.norm>
-0.563816

$$$$
S58.pdb
  rDOCK(R)          3D
libRbt.so/2013.1/901 2013/11/27
 28 30  0  0  0  0  0  0  0  0999 V2000
   26.6879   27.7981   30.9799 C   0  0  0  0  0  0
   26.2746   28.8355   30.2005 C   0  0  0  0  0  0
   25.5997   26.7793   30.9235 C   0  0  0  0  0  0
   25.4917   25.4843   31.6717 C   0  0  0  0  0  0
   24.4047   29.1043   28.5986 C   0  0  0  0  0  0
   25.1908   29.4774   27.5011 C   0  0  0  0  0  0
   24.5819   30.0110   26.3750 C   0  0  0  0  0  0
   23.1769   30.1676   26.3488 C   0  0  0  0  0  0
   22.3913   29.7911   27.4511 C   0  0  0  0  0  0
   23.0115   29.2585   28.5839 C   0  0  0  0  0  0
   27.0330   30.1103   30.0141 C   0  0  0  0  0  0
   28.4125   30.1570   30.3396 C   0  0  0  0  0  0
   29.1742   31.2991   30.0303 C   0  0  0  0  0  0
   28.5724   32.3841   29.3985 C   0  0  0  0  0  0
   27.2053   32.3568   29.1021 C   0  0  0  0  0  0
   26.4290   31.2144   29.4090 C   0  0  0  0  0  0
   25.0454   28.5263   29.6639 N   0  0  0  0  0  0
   24.6660   27.2294   30.1303 N   0  0  0  0  0  0
   22.2792   29.5778   23.6667 N   0  0  0  0  0  0
   23.1183   31.9771   24.4025 O   0  0  0  0  0  0
   21.0456   31.2793   25.2419 O   0  0  0  0  0  0
   29.6208   33.7836   28.8070 Br  0  0  0  0  0  0
   26.6105   24.7474   31.4589 F   0  0  0  0  0  0
   24.3845   24.8275   31.2914 F   0  0  0  0  0  0
   25.4047   25.7686   32.9760 F   0  0  0  0  0  0
   22.3655   30.8552   24.8674 S   0  0  0  0  0  0
   22.9362   29.5468   22.9438 H   0  0  0  0  0  0
   21.5759   28.8955   23.7217 H   0  0  0  0  0  0
  1  3  1  0  0  0
  2  1  2  0  0  0
  2 17  1  0  0  0
  3 18  2  0  0  0
  3  4  1  0  0  0
  4 23  1  0  0  0
  4 25  1  0  0  0
  5 17  1  0  0  0
  5  6  2  0  0  0
  7  6  1  0  0  0
  8  7  2  0  0  0
  9 10  2  0  0  0
  9  8  1  0  0  0
 10  5  1  0  0  0
 11  2  1  0  0  0
 12 11  1  0  0  0
 13 12  2  0  0  0
 14 15  2  0  0  0
 14 13  1  0  0  0
 15 16  1  0  0  0
 16 11  2  0  0  0
 17 18  1  0  0  0
 19 28  1  0  0  0
 20 26  2  0  0  0
 22 14  1  0  0  0
 24  4  1  0  0  0
 26  8  1  0  0  0
 26 19  1  0  0  0
 26 21  2  0  0  0
 27 19  1  0  0  0
M  END
>  <CHROM.0>
-67.25784829,-69.33787947,-84.73124938

>  <CHROM.1>
-54.21050624,38.46838234,18.16733941,78.10051316,-99.69553299,25.76693479
29.92947249,28.67979439,-2.16347619,-0.59198550,-0.66585327

>  <FORMUL>
      S58    C16 H11 Br1 F3 N3 O2 S1

>  <HET>
 S58  A 701      28

>  <HETNAM>
     S58 1-PHENYLSULFONAMIDE-3-TRIFLUOROMETHYL-5-PARABROMOPHENYL
   2 S58 PYRAZOLE

>  <Name>
S58.pdb

>  <RI>
0

>  <Rbt.Current_Directory>
/home/malgorzata/Desktop/rDOCK_IFD/Wyniki/3c_COX2/IFD

>  <Rbt.Executable>
rbdock ($Id: //depot/dev/client3/rdock/2013.1/src/exe/rbdock.cxx#4 $)

>  <Rbt.Library>
libRbt.so (2013.1, Build901 2013/11/27)

>  <Rbt.Parameter_File>
/home/malgorzata/Desktop/rDock_2013.1_src/data/scripts/hard_docking.prm

>  <Rbt.Receptor>
cavity.prm

>  <SCORE>
-8.88032

>  <SCORE.INTER>
-7.41907

>  <SCORE.INTER.CONST>
1

>  <SCORE.INTER.POLAR>
-1.83719

>  <SCORE.INTER.REPUL>
0

>  <SCORE.INTER.ROT>
5

>  <SCORE.INTER.VDW>
-11.5726

>  <SCORE.INTER.norm>
-0.285349

>  <SCORE.INTRA>
-2.58633

>  <SCORE.INTRA.DIHEDRAL>
-7.43535

>  <SCORE.INTRA.DIHEDRAL.0>
18.1022

>  <SCORE.INTRA.POLAR>
0

>  <SCORE.INTRA.POLAR.0>
0

>  <SCORE.INTRA.REPUL>
0

>  <SCORE.INTRA.REPUL.0>
0

>  <SCORE.INTRA.VDW>
1.13134

>  <SCORE.INTRA.VDW.0>
-2.81782

>  <SCORE.INTRA.norm>
-0.0994744

>  <SCORE.RESTR>
0

>  <SCORE.RESTR.CAVITY>
0

>  <SCORE.RESTR.norm>
0

>  <SCORE.SYSTEM>
1.12509

>  <SCORE.SYSTEM.CONST>
0

>  <SCORE.SYSTEM.DIHEDRAL>
1.21035

>  <SCORE.SYSTEM.POLAR>
-0.505688

>  <SCORE.SYSTEM.REPUL>
0.598505

>  <SCORE.SYSTEM.VDW>
-0.753273

>  <SCORE.SYSTEM.norm>
0.0432726

>  <SCORE.heavy>
26

>  <SCORE.norm>
-0.341551

$$$$
S58.pdb
  rDOCK(R)          3D
libRbt.so/2013.1/901 2013/11/27
 28 30  0  0  0  0  0  0  0  0999 V2000
   25.5426   27.7050   26.7308 C   0  0  0  0  0  0
   24.8643   28.8732   26.5586 C   0  0  0  0  0  0
   26.9451   28.0866   27.0665 C   0  0  0  0  0  0
   28.1350   27.1956   27.2634 C   0  0  0  0  0  0
   25.4280   31.2388   27.0290 C   0  0  0  0  0  0
   26.4918   32.0861   27.3640 C   0  0  0  0  0  0
   26.2510   33.4367   27.5672 C   0  0  0  0  0  0
   24.9369   33.9402   27.4300 C   0  0  0  0  0  0
   23.8723   33.0876   27.0927 C   0  0  0  0  0  0
   24.1211   31.7274   26.8938 C   0  0  0  0  0  0
   23.4293   28.9679   26.1504 C   0  0  0  0  0  0
   23.0747   29.7424   25.0166 C   0  0  0  0  0  0
   21.7543   29.7213   24.5301 C   0  0  0  0  0  0
   20.7951   28.9338   25.1610 C   0  0  0  0  0  0
   21.1308   28.1910   26.2983 C   0  0  0  0  0  0
   22.4548   28.2050   26.7971 C   0  0  0  0  0  0
   25.7255   29.9240   26.7792 N   0  0  0  0  0  0
   27.0105   29.3896   27.1056 N   0  0  0  0  0  0
   23.0031   35.8726   28.3648 N   0  0  0  0  0  0
   24.7297   36.3937   26.4284 O   0  0  0  0  0  0
   25.5957   36.2216   28.5982 O   0  0  0  0  0  0
   19.1275   28.7470   24.3916 Br  0  0  0  0  0  0
   28.9809   27.7663   28.1571 F   0  0  0  0  0  0
   28.7363   26.9688   26.0851 F   0  0  0  0  0  0
   27.7004   26.0333   27.7630 F   0  0  0  0  0  0
   24.6124   35.7171   27.6814 S   0  0  0  0  0  0
   22.7685   35.3726   29.1712 H   0  0  0  0  0  0
   22.3418   36.4610   27.9410 H   0  0  0  0  0  0
  1  3  1  0  0  0
  2  1  2  0  0  0
  2 17  1  0  0  0
  3 18  2  0  0  0
  3  4  1  0  0  0
  4 23  1  0  0  0
  4 25  1  0  0  0
  5 17  1  0  0  0
  5  6  2  0  0  0
  7  6  1  0  0  0
  8  7  2  0  0  0
  9 10  2  0  0  0
  9  8  1  0  0  0
 10  5  1  0  0  0
 11  2  1  0  0  0
 12 11  1  0  0  0
 13 12  2  0  0  0
 14 15  2  0  0  0
 14 13  1  0  0  0
 15 16  1  0  0  0
 16 11  2  0  0  0
 17 18  1  0  0  0
 19 28  1  0  0  0
 20 26  2  0  0  0
 22 14  1  0  0  0
 24  4  1  0  0  0
 26  8  1  0  0  0
 26 19  1  0  0  0
 26 21  2  0  0  0
 27 19  1  0  0  0
M  END
>  <CHROM.0>
97.33122617,-67.75845629,48.70263993

>  <CHROM.1>
-149.50967588,173.20604736,-125.35157785,-147.25618827,53.48967839,24.07471626
30.47466468,26.50734176,-2.41137973,-0.32349391,0.18236367

>  <FORMUL>
      S58    C16 H11 Br1 F3 N3 O2 S1

>  <HET>
 S58  A 701      28

>  <HETNAM>
     S58 1-PHENYLSULFONAMIDE-3-TRIFLUOROMETHYL-5-PARABROMOPHENYL
   2 S58 PYRAZOLE

>  <Name>
S58.pdb

>  <RI>
0

>  <Rbt.Current_Directory>
/home/malgorzata/Desktop/rDOCK_IFD/Wyniki/3c_COX2/IFD

>  <Rbt.Executable>
rbdock ($Id: //depot/dev/client3/rdock/2013.1/src/exe/rbdock.cxx#4 $)

>  <Rbt.Library>
libRbt.so (2013.1, Build901 2013/11/27)

>  <Rbt.Parameter_File>
/home/malgorzata/Desktop/rDock_2013.1_src/data/scripts/hard_docking.prm

>  <Rbt.Receptor>
cavity.prm

>  <SCORE>
-15.2085

>  <SCORE.INTER>
-9.01116

>  <SCORE.INTER.CONST>
1

>  <SCORE.INTER.POLAR>
0

>  <SCORE.INTER.REPUL>
0

>  <SCORE.INTER.ROT>
5

>  <SCORE.INTER.VDW>
-19.4112

>  <SCORE.INTER.norm>
-0.346583

>  <SCORE.INTRA>
-2.38385

>  <SCORE.INTRA.DIHEDRAL>
-6.92623

>  <SCORE.INTRA.DIHEDRAL.0>
18.1022

>  <SCORE.INTRA.POLAR>
0

>  <SCORE.INTRA.POLAR.0>
0

>  <SCORE.INTRA.REPUL>
0

>  <SCORE.INTRA.REPUL.0>
0

>  <SCORE.INTRA.VDW>
1.07927

>  <SCORE.INTRA.VDW.0>
-2.81782

>  <SCORE.INTRA.norm>
-0.0916865

>  <SCORE.RESTR>
0.000156713

>  <SCORE.RESTR.CAVITY>
0.000156713

>  <SCORE.RESTR.norm>
6.02742e-06

>  <SCORE.SYSTEM>
-3.81368

>  <SCORE.SYSTEM.CONST>
0

>  <SCORE.SYSTEM.DIHEDRAL>
1.08159

>  <SCORE.SYSTEM.POLAR>
-1.0669

>  <SCORE.SYSTEM.VDW>
-0.727002

>  <SCORE.SYSTEM.norm>
-0.14668

>  <SCORE.heavy>
26

>  <SCORE.norm>
-0.584944

$$$$
S58.pdb
  rDOCK(R)          3D
libRbt.so/2013.1/901 2013/11/27
 28 30  0  0  0  0  0  0  0  0999 V2000
   26.2557   27.2469   30.4895 C   0  0  0  0  0  0
   26.6836   28.3664   29.8431 C   0  0  0  0  0  0
   27.3886   26.8116   31.3570 C   0  0  0  0  0  0
   27.4937   25.5842   32.2118 C   0  0  0  0  0  0
   28.6611   29.8303   30.1291 C   0  0  0  0  0  0
   30.0544   29.7672   30.2571 C   0  0  0  0  0  0
   30.8093   30.9166   30.0768 C   0  0  0  0  0  0
   30.1631   32.1345   29.7630 C   0  0  0  0  0  0
   28.7653   32.1939   29.6342 C   0  0  0  0  0  0
   28.0106   31.0333   29.8215 C   0  0  0  0  0  0
   25.8871   29.1114   28.8205 C   0  0  0  0  0  0
   26.5446   29.6771   27.6986 C   0  0  0  0  0  0
   25.7955   30.2490   26.6535 C   0  0  0  0  0  0
   24.4048   30.2547   26.7194 C   0  0  0  0  0  0
   23.7506   29.7257   27.8375 C   0  0  0  0  0  0
   24.4932   29.1489   28.8947 C   0  0  0  0  0  0
   27.9639   28.6568   30.2567 N   0  0  0  0  0  0
   28.3616   27.6692   31.2106 N   0  0  0  0  0  0
   31.6799   33.6640   27.8376 N   0  0  0  0  0  0
   32.2482   33.6458   30.4219 O   0  0  0  0  0  0
   30.3012   34.7772   29.7761 O   0  0  0  0  0  0
   23.4307   30.8111   25.2534 Br  0  0  0  0  0  0
   28.0195   25.9190   33.4166 F   0  0  0  0  0  0
   28.2339   24.6545   31.5878 F   0  0  0  0  0  0
   26.2584   25.1059   32.3988 F   0  0  0  0  0  0
   31.1480   33.6483   29.5102 S   0  0  0  0  0  0
   32.6310   33.7561   27.6322 H   0  0  0  0  0  0
   31.0259   33.5781   27.1109 H   0  0  0  0  0  0
  1  3  1  0  0  0
  2  1  2  0  0  0
  2 17  1  0  0  0
  3 18  2  0  0  0
  3  4  1  0  0  0
  4 23  1  0  0  0
  4 25  1  0  0  0
  5 17  1  0  0  0
  5  6  2  0  0  0
  7  6  1  0  0  0
  8  7  2  0  0  0
  9 10  2  0  0  0
  9  8  1  0  0  0
 10  5  1  0  0  0
 11  2  1  0  0  0
 12 11  1  0  0  0
 13 12  2  0  0  0
 14 15  2  0  0  0
 14 13  1  0  0  0
 15 16  1  0  0  0
 16 11  2  0  0  0
 17 18  1  0  0  0
 19 28  1  0  0  0
 20 26  2  0  0  0
 22 14  1  0  0  0
 24  4  1  0  0  0
 26  8  1  0  0  0
 26 19  1  0  0  0
 26 21  2  0  0  0
 27 19  1  0  0  0
M  END
>  <CHROM.0>
-147.96440703,-69.86036077,46.25536325

>  <CHROM.1>
-136.17788173,-161.21093121,-142.64384461,85.10007452,-125.66971467,27.35993520
29.90190253,29.12038295,2.89203563,-0.55649371,-0.61880941

>  <FORMUL>
      S58    C16 H11 Br1 F3 N3 O2 S1

>  <HET>
 S58  A 701      28

>  <HETNAM>
     S58 1-PHENYLSULFONAMIDE-3-TRIFLUOROMETHYL-5-PARABROMOPHENYL
   2 S58 PYRAZOLE

>  <Name>
S58.pdb

>  <RI>
0

>  <Rbt.Current_Directory>
/home/malgorzata/Desktop/rDOCK_IFD/Wyniki/3c_COX2/IFD

>  <Rbt.Executable>
rbdock ($Id: //depot/dev/client3/rdock/2013.1/src/exe/rbdock.cxx#4 $)

>  <Rbt.Library>
libRbt.so (2013.1, Build901 2013/11/27)

>  <Rbt.Parameter_File>
/home/malgorzata/Desktop/rDock_2013.1_src/data/scripts/hard_docking.prm

>  <Rbt.Receptor>
cavity.prm

>  <SCORE>
-11.8148

>  <SCORE.INTER>
-5.99768

>  <SCORE.INTER.CONST>
1

>  <SCORE.INTER.POLAR>
-0.229698

>  <SCORE.INTER.REPUL>
0

>  <SCORE.INTER.ROT>
5

>  <SCORE.INTER.VDW>
-15.6167

>  <SCORE.INTER.norm>
-0.23068

>  <SCORE.INTRA>
-3.14928

>  <SCORE.INTRA.DIHEDRAL>
-8.2564

>  <SCORE.INTRA.DIHEDRAL.0>
18.1022

>  <SCORE.INTRA.POLAR>
0

>  <SCORE.INTRA.POLAR.0>
0

>  <SCORE.INTRA.REPUL>
0

>  <SCORE.INTRA.REPUL.0>
0

>  <SCORE.INTRA.VDW>
0.978919

>  <SCORE.INTRA.VDW.0>
-2.81782

>  <SCORE.INTRA.norm>
-0.121126

>  <SCORE.RESTR>
0.969563

>  <SCORE.RESTR.CAVITY>
0.969563

>  <SCORE.RESTR.norm>
0.0372909

>  <SCORE.SYSTEM>
-3.63738

>  <SCORE.SYSTEM.CONST>
0

>  <SCORE.SYSTEM.DIHEDRAL>
1.25626

>  <SCORE.SYSTEM.POLAR>
-1.06379

>  <SCORE.SYSTEM.VDW>
-0.648615

>  <SCORE.SYSTEM.norm>
-0.139899

>  <SCORE.heavy>
26

>  <SCORE.norm>
-0.454415

$$$$
