S58.pdb
  rDOCK(R)          3D
libRbt.so/2013.1/901 2013/11/27
 28 30  0  0  0  0  0  0  0  0999 V2000
   25.1659   32.1654   27.1609 C   0  0  0  0  0  0
   25.3585   30.8354   27.3810 C   0  0  0  0  0  0
   23.7937   32.2959   26.5906 C   0  0  0  0  0  0
   23.1070   33.5267   26.0788 C   0  0  0  0  0  0
   23.8387   28.8799   27.3442 C   0  0  0  0  0  0
   24.2645   28.3823   28.5823 C   0  0  0  0  0  0
   23.8553   27.1208   28.9884 C   0  0  0  0  0  0
   23.0118   26.3566   28.1496 C   0  0  0  0  0  0
   22.5857   26.8593   26.9088 C   0  0  0  0  0  0
   23.0052   28.1288   26.5039 C   0  0  0  0  0  0
   26.6280   30.2364   27.8952 C   0  0  0  0  0  0
   27.2406   30.7829   29.0515 C   0  0  0  0  0  0
   28.3488   30.1414   29.6354 C   0  0  0  0  0  0
   28.8416   28.9642   29.0787 C   0  0  0  0  0  0
   28.2610   28.4361   27.9203 C   0  0  0  0  0  0
   27.1470   29.0727   27.3239 C   0  0  0  0  0  0
   24.2200   30.1546   27.0137 N   0  0  0  0  0  0
   23.2636   31.1043   26.5375 N   0  0  0  0  0  0
   21.0388   24.9167   29.6928 N   0  0  0  0  0  0
   23.5219   24.0568   29.3811 O   0  0  0  0  0  0
   22.1229   23.9486   27.5052 O   0  0  0  0  0  0
   30.1531   28.0199   29.9708 Br  0  0  0  0  0  0
   22.1737   33.9276   26.9779 F   0  0  0  0  0  0
   22.5645   33.2809   24.8759 F   0  0  0  0  0  0
   24.0271   34.4897   25.9546 F   0  0  0  0  0  0
   22.4570   24.7026   28.6808 S   0  0  0  0  0  0
   21.0079   24.5031   30.5778 H   0  0  0  0  0  0
   20.2806   25.4515   29.3731 H   0  0  0  0  0  0
  1  3  1  0  0  0
  2  1  2  0  0  0
  2 17  1  0  0  0
  3 18  2  0  0  0
  3  4  1  0  0  0
  4 23  1  0  0  0
  4 25  1  0  0  0
  5 17  1  0  0  0
  5  6  2  0  0  0
  7  6  1  0  0  0
  8  7  2  0  0  0
  9 10  2  0  0  0
  9  8  1  0  0  0
 10  5  1  0  0  0
 11  2  1  0  0  0
 12 11  1  0  0  0
 13 12  2  0  0  0
 14 15  2  0  0  0
 14 13  1  0  0  0
 15 16  1  0  0  0
 16 11  2  0  0  0
 17 18  1  0  0  0
 19 28  1  0  0  0
 20 26  2  0  0  0
 22 14  1  0  0  0
 24  4  1  0  0  0
 26  8  1  0  0  0
 26 19  1  0  0  0
 26 21  2  0  0  0
 27 19  1  0  0  0
M  END
>  <CHROM.0>
156.35093213,116.07027953,-81.81576096

>  <CHROM.1>
-105.62845599,30.26145634,49.75960689,84.63467541,-127.77104527,25.22629428
28.95960018,28.06367341,-2.23524931,0.29199815,2.83126313

>  <FORMUL>
      S58    C16 H11 Br1 F3 N3 O2 S1

>  <HET>
 S58  A 701      28

>  <HETNAM>
     S58 1-PHENYLSULFONAMIDE-3-TRIFLUOROMETHYL-5-PARABROMOPHENYL
   2 S58 PYRAZOLE

>  <Name>
S58.pdb

>  <RI>
0

>  <Rbt.Current_Directory>
/home/malgorzata/Desktop/rDOCK_IFD/Wyniki/3b_COX2

>  <Rbt.Executable>
rbdock ($Id: //depot/dev/client3/rdock/2013.1/src/exe/rbdock.cxx#4 $)

>  <Rbt.Library>
libRbt.so (2013.1, Build901 2013/11/27)

>  <Rbt.Parameter_File>
/home/malgorzata/Desktop/rDock_2013.1_src/data/scripts/soft_docking.prm

>  <Rbt.Receptor>
cavity.prm

>  <SCORE>
-19.5151

>  <SCORE.INTER>
-15.4944

>  <SCORE.INTER.CONST>
1

>  <SCORE.INTER.POLAR>
-0.845707

>  <SCORE.INTER.REPUL>
0

>  <SCORE.INTER.ROT>
5

>  <SCORE.INTER.VDW>
-23.019

>  <SCORE.INTER.norm>
-0.595938

>  <SCORE.INTRA>
-0.655462

>  <SCORE.INTRA.DIHEDRAL>
-3.49207

>  <SCORE.INTRA.DIHEDRAL.0>
18.1022

>  <SCORE.INTRA.POLAR>
0

>  <SCORE.INTRA.POLAR.0>
0

>  <SCORE.INTRA.REPUL>
0

>  <SCORE.INTRA.REPUL.0>
0

>  <SCORE.INTRA.VDW>
0.042952

>  <SCORE.INTRA.VDW.0>
-2.81782

>  <SCORE.INTRA.norm>
-0.0252101

>  <SCORE.RESTR>
0.233157

>  <SCORE.RESTR.CAVITY>
0.233157

>  <SCORE.RESTR.norm>
0.00896757

>  <SCORE.SYSTEM>
-3.59842

>  <SCORE.SYSTEM.CONST>
0

>  <SCORE.SYSTEM.DIHEDRAL>
2.86889

>  <SCORE.SYSTEM.POLAR>
-0.94719

>  <SCORE.SYSTEM.VDW>
-1.81242

>  <SCORE.SYSTEM.norm>
-0.138401

>  <SCORE.heavy>
26

>  <SCORE.norm>
-0.750581

$$$$
S58.pdb
  rDOCK(R)          3D
libRbt.so/2013.1/901 2013/11/27
 28 30  0  0  0  0  0  0  0  0999 V2000
   26.4530   35.1320   28.1989 C   0  0  0  0  0  0
   27.1328   33.9523   28.2128 C   0  0  0  0  0  0
   25.1752   34.8647   27.4770 C   0  0  0  0  0  0
   24.0972   35.8341   27.0938 C   0  0  0  0  0  0
   26.4966   31.6293   27.6347 C   0  0  0  0  0  0
   25.4503   30.8677   27.0991 C   0  0  0  0  0  0
   25.5555   29.4850   27.0743 C   0  0  0  0  0  0
   26.7178   28.8637   27.5863 C   0  0  0  0  0  0
   27.7661   29.6308   28.1218 C   0  0  0  0  0  0
   27.6517   31.0229   28.1478 C   0  0  0  0  0  0
   28.5014   33.7693   28.7859 C   0  0  0  0  0  0
   29.6066   34.4165   28.1770 C   0  0  0  0  0  0
   30.8736   34.3782   28.7881 C   0  0  0  0  0  0
   31.0410   33.7072   29.9965 C   0  0  0  0  0  0
   29.9618   33.0409   30.5873 C   0  0  0  0  0  0
   28.6834   33.0716   29.9818 C   0  0  0  0  0  0
   26.3726   32.9936   27.5822 N   0  0  0  0  0  0
   25.1536   33.6016   27.1490 N   0  0  0  0  0  0
   28.1876   26.6002   28.6177 N   0  0  0  0  0  0
   27.1123   26.6302   26.2001 O   0  0  0  0  0  0
   25.6345   26.4871   28.0121 O   0  0  0  0  0  0
   32.6489   33.8434   30.8931 Br  0  0  0  0  0  0
   22.9491   35.1551   26.8471 F   0  0  0  0  0  0
   24.4868   36.5542   26.0303 F   0  0  0  0  0  0
   23.8970   36.6571   28.1292 F   0  0  0  0  0  0
   26.8717   27.0470   27.5454 S   0  0  0  0  0  0
   28.0194   26.4978   29.5750 H   0  0  0  0  0  0
   29.0884   26.4510   28.2579 H   0  0  0  0  0  0
  1  3  1  0  0  0
  2  1  2  0  0  0
  2 17  1  0  0  0
  3 18  2  0  0  0
  3  4  1  0  0  0
  4 23  1  0  0  0
  4 25  1  0  0  0
  5 17  1  0  0  0
  5  6  2  0  0  0
  7  6  1  0  0  0
  8  7  2  0  0  0
  9 10  2  0  0  0
  9  8  1  0  0  0
 10  5  1  0  0  0
 11  2  1  0  0  0
 12 11  1  0  0  0
 13 12  2  0  0  0
 14 15  2  0  0  0
 14 13  1  0  0  0
 15 16  1  0  0  0
 16 11  2  0  0  0
 17 18  1  0  0  0
 19 28  1  0  0  0
 20 26  2  0  0  0
 22 14  1  0  0  0
 24  4  1  0  0  0
 26  8  1  0  0  0
 26 19  1  0  0  0
 26 21  2  0  0  0
 27 19  1  0  0  0
M  END
>  <CHROM.0>
57.60927576,112.30607415,50.98952551

>  <CHROM.1>
-160.68275429,168.58082020,-66.11783520,-165.10179544,84.27670246,27.77941604
32.31839841,28.42055797,0.67427503,-0.43552835,0.08277734

>  <FORMUL>
      S58    C16 H11 Br1 F3 N3 O2 S1

>  <HET>
 S58  A 701      28

>  <HETNAM>
     S58 1-PHENYLSULFONAMIDE-3-TRIFLUOROMETHYL-5-PARABROMOPHENYL
   2 S58 PYRAZOLE

>  <Name>
S58.pdb

>  <RI>
0

>  <Rbt.Current_Directory>
/home/malgorzata/Desktop/rDOCK_IFD/Wyniki/3b_COX2

>  <Rbt.Executable>
rbdock ($Id: //depot/dev/client3/rdock/2013.1/src/exe/rbdock.cxx#4 $)

>  <Rbt.Library>
libRbt.so (2013.1, Build901 2013/11/27)

>  <Rbt.Parameter_File>
/home/malgorzata/Desktop/rDock_2013.1_src/data/scripts/soft_docking.prm

>  <Rbt.Receptor>
cavity.prm

>  <SCORE>
-22.9625

>  <SCORE.INTER>
-21.8092

>  <SCORE.INTER.CONST>
1

>  <SCORE.INTER.POLAR>
-2.33067

>  <SCORE.INTER.REPUL>
0.00387386

>  <SCORE.INTER.ROT>
5

>  <SCORE.INTER.VDW>
-24.3043

>  <SCORE.INTER.norm>
-0.838816

>  <SCORE.INTRA>
0.264988

>  <SCORE.INTRA.DIHEDRAL>
-3.20065

>  <SCORE.INTRA.DIHEDRAL.0>
18.1022

>  <SCORE.INTRA.POLAR>
0

>  <SCORE.INTRA.POLAR.0>
0

>  <SCORE.INTRA.REPUL>
0

>  <SCORE.INTRA.REPUL.0>
0

>  <SCORE.INTRA.VDW>
0.905117

>  <SCORE.INTRA.VDW.0>
-2.81782

>  <SCORE.INTRA.norm>
0.0101918

>  <SCORE.RESTR>
1.17806

>  <SCORE.RESTR.CAVITY>
1.17806

>  <SCORE.RESTR.norm>
0.04531

>  <SCORE.SYSTEM>
-2.59635

>  <SCORE.SYSTEM.CONST>
0

>  <SCORE.SYSTEM.DIHEDRAL>
1.17907

>  <SCORE.SYSTEM.POLAR>
-0.362889

>  <SCORE.SYSTEM.VDW>
-1.95206

>  <SCORE.SYSTEM.norm>
-0.0998596

>  <SCORE.heavy>
26

>  <SCORE.norm>
-0.883174

$$$$
S58.pdb
  rDOCK(R)          3D
libRbt.so/2013.1/901 2013/11/27
 28 30  0  0  0  0  0  0  0  0999 V2000
   26.4877   35.0544   27.7711 C   0  0  0  0  0  0
   27.2799   33.9494   27.6966 C   0  0  0  0  0  0
   25.1726   34.6607   27.1873 C   0  0  0  0  0  0
   23.9678   35.5169   26.9347 C   0  0  0  0  0  0
   26.8211   31.5751   27.1605 C   0  0  0  0  0  0
   26.4821   30.8715   28.3232 C   0  0  0  0  0  0
   26.6753   29.4990   28.3715 C   0  0  0  0  0  0
   27.2079   28.8287   27.2462 C   0  0  0  0  0  0
   27.5457   29.5375   26.0810 C   0  0  0  0  0  0
   27.3528   30.9205   26.0408 C   0  0  0  0  0  0
   28.7139   33.9046   28.1170 C   0  0  0  0  0  0
   29.2611   34.9871   28.8517 C   0  0  0  0  0  0
   30.5607   34.8960   29.3838 C   0  0  0  0  0  0
   31.3090   33.7375   29.1925 C   0  0  0  0  0  0
   30.7869   32.6777   28.4428 C   0  0  0  0  0  0
   29.4818   32.7582   27.9022 C   0  0  0  0  0  0
   26.5560   32.9200   27.1392 N   0  0  0  0  0  0
   25.2424   33.4025   26.8473 N   0  0  0  0  0  0
   28.8604   26.6494   26.3149 N   0  0  0  0  0  0
   26.2741   26.3794   26.8052 O   0  0  0  0  0  0
   27.6795   26.6425   28.6609 O   0  0  0  0  0  0
   32.9209   33.5448   30.0714 Br  0  0  0  0  0  0
   23.2546   35.6390   28.0821 F   0  0  0  0  0  0
   23.2305   34.9882   25.9455 F   0  0  0  0  0  0
   24.3948   36.7285   26.5618 F   0  0  0  0  0  0
   27.4525   27.0222   27.2947 S   0  0  0  0  0  0
   28.7428   26.3385   25.3958 H   0  0  0  0  0  0
   29.7625   26.7548   26.6869 H   0  0  0  0  0  0
  1  3  1  0  0  0
  2  1  2  0  0  0
  2 17  1  0  0  0
  3 18  2  0  0  0
  3  4  1  0  0  0
  4 23  1  0  0  0
  4 25  1  0  0  0
  5 17  1  0  0  0
  5  6  2  0  0  0
  7  6  1  0  0  0
  8  7  2  0  0  0
  9 10  2  0  0  0
  9  8  1  0  0  0
 10  5  1  0  0  0
 11  2  1  0  0  0
 12 11  1  0  0  0
 13 12  2  0  0  0
 14 15  2  0  0  0
 14 13  1  0  0  0
 15 16  1  0  0  0
 16 11  2  0  0  0
 17 18  1  0  0  0
 19 28  1  0  0  0
 20 26  2  0  0  0
 22 14  1  0  0  0
 24  4  1  0  0  0
 26  8  1  0  0  0
 26 19  1  0  0  0
 26 21  2  0  0  0
 27 19  1  0  0  0
M  END
>  <CHROM.0>
119.37911196,63.56055203,-169.92822639

>  <CHROM.1>
-82.36415730,80.00395179,11.31329701,-147.40503532,-98.58540654,28.03870525
32.20251555,27.94031119,3.01001429,0.35493372,-3.02414478

>  <FORMUL>
      S58    C16 H11 Br1 F3 N3 O2 S1

>  <HET>
 S58  A 701      28

>  <HETNAM>
     S58 1-PHENYLSULFONAMIDE-3-TRIFLUOROMETHYL-5-PARABROMOPHENYL
   2 S58 PYRAZOLE

>  <Name>
S58.pdb

>  <RI>
0

>  <Rbt.Current_Directory>
/home/malgorzata/Desktop/rDOCK_IFD/Wyniki/3b_COX2

>  <Rbt.Executable>
rbdock ($Id: //depot/dev/client3/rdock/2013.1/src/exe/rbdock.cxx#4 $)

>  <Rbt.Library>
libRbt.so (2013.1, Build901 2013/11/27)

>  <Rbt.Parameter_File>
/home/malgorzata/Desktop/rDock_2013.1_src/data/scripts/soft_docking.prm

>  <Rbt.Receptor>
cavity.prm

>  <SCORE>
-22.4901

>  <SCORE.INTER>
-19.7909

>  <SCORE.INTER.CONST>
1

>  <SCORE.INTER.POLAR>
-1.74779

>  <SCORE.INTER.REPUL>
0

>  <SCORE.INTER.ROT>
5

>  <SCORE.INTER.VDW>
-24.2484

>  <SCORE.INTER.norm>
-0.761189

>  <SCORE.INTRA>
-0.531002

>  <SCORE.INTRA.DIHEDRAL>
-2.36482

>  <SCORE.INTRA.DIHEDRAL.0>
18.1022

>  <SCORE.INTRA.POLAR>
0

>  <SCORE.INTRA.POLAR.0>
0

>  <SCORE.INTRA.REPUL>
0

>  <SCORE.INTRA.REPUL.0>
0

>  <SCORE.INTRA.VDW>
-0.0580385

>  <SCORE.INTRA.VDW.0>
-2.81782

>  <SCORE.INTRA.norm>
-0.0204232

>  <SCORE.RESTR>
0.646174

>  <SCORE.RESTR.CAVITY>
0.646174

>  <SCORE.RESTR.norm>
0.0248529

>  <SCORE.SYSTEM>
-2.81433

>  <SCORE.SYSTEM.CONST>
0

>  <SCORE.SYSTEM.DIHEDRAL>
1.2877

>  <SCORE.SYSTEM.POLAR>
-0.467771

>  <SCORE.SYSTEM.VDW>
-1.86775

>  <SCORE.SYSTEM.norm>
-0.108243

>  <SCORE.heavy>
26

>  <SCORE.norm>
-0.865002

$$$$
S58.pdb
  rDOCK(R)          3D
libRbt.so/2013.1/901 2013/11/27
 28 30  0  0  0  0  0  0  0  0999 V2000
   23.7670   31.6497   27.5622 C   0  0  0  0  0  0
   25.0753   31.3000   27.7056 C   0  0  0  0  0  0
   22.9863   30.6737   28.3766 C   0  0  0  0  0  0
   21.4980   30.5381   28.5002 C   0  0  0  0  0  0
   26.2475   29.7288   29.2197 C   0  0  0  0  0  0
   26.9800   28.7070   28.6024 C   0  0  0  0  0  0
   28.1272   28.2239   29.2142 C   0  0  0  0  0  0
   28.5432   28.7715   30.4496 C   0  0  0  0  0  0
   27.8067   29.7973   31.0654 C   0  0  0  0  0  0
   26.6497   30.2761   30.4460 C   0  0  0  0  0  0
   26.2141   31.9752   27.0114 C   0  0  0  0  0  0
   27.4631   31.3113   26.9093 C   0  0  0  0  0  0
   28.4973   31.8650   26.1319 C   0  0  0  0  0  0
   28.2914   33.0654   25.4572 C   0  0  0  0  0  0
   27.0721   33.7410   25.5781 C   0  0  0  0  0  0
   26.0253   33.1946   26.3576 C   0  0  0  0  0  0
   25.1555   30.2142   28.5478 N   0  0  0  0  0  0
   23.8307   29.8628   28.9537 N   0  0  0  0  0  0
   31.2289   27.8089   29.9935 N   0  0  0  0  0  0
   29.7369   26.9891   32.0193 O   0  0  0  0  0  0
   30.5493   29.1838   32.1256 O   0  0  0  0  0  0
   29.5728   33.6712   24.2745 Br  0  0  0  0  0  0
   20.9815   31.6901   28.9965 F   0  0  0  0  0  0
   21.1977   29.4845   29.2755 F   0  0  0  0  0  0
   21.0002   30.3353   27.2753 F   0  0  0  0  0  0
   30.0579   28.1529   31.2550 S   0  0  0  0  0  0
   32.1768   27.9889   30.1498 H   0  0  0  0  0  0
   30.9343   27.4349   29.1353 H   0  0  0  0  0  0
  1  3  1  0  0  0
  2  1  2  0  0  0
  2 17  1  0  0  0
  3 18  2  0  0  0
  3  4  1  0  0  0
  4 23  1  0  0  0
  4 25  1  0  0  0
  5 17  1  0  0  0
  5  6  2  0  0  0
  7  6  1  0  0  0
  8  7  2  0  0  0
  9 10  2  0  0  0
  9  8  1  0  0  0
 10  5  1  0  0  0
 11  2  1  0  0  0
 12 11  1  0  0  0
 13 12  2  0  0  0
 14 15  2  0  0  0
 14 13  1  0  0  0
 15 16  1  0  0  0
 16 11  2  0  0  0
 17 18  1  0  0  0
 19 28  1  0  0  0
 20 26  2  0  0  0
 22 14  1  0  0  0
 24  4  1  0  0  0
 26  8  1  0  0  0
 26 19  1  0  0  0
 26 21  2  0  0  0
 27 19  1  0  0  0
M  END
>  <CHROM.0>
-38.71217769,38.10659363,-85.85110505

>  <CHROM.1>
-60.50029885,-94.07318297,-161.40258172,37.08898619,143.28274056,26.85216466
30.79367508,28.05729997,2.70634755,-0.03015932,2.25974954

>  <FORMUL>
      S58    C16 H11 Br1 F3 N3 O2 S1

>  <HET>
 S58  A 701      28

>  <HETNAM>
     S58 1-PHENYLSULFONAMIDE-3-TRIFLUOROMETHYL-5-PARABROMOPHENYL
   2 S58 PYRAZOLE

>  <Name>
S58.pdb

>  <RI>
0

>  <Rbt.Current_Directory>
/home/malgorzata/Desktop/rDOCK_IFD/Wyniki/3b_COX2

>  <Rbt.Executable>
rbdock ($Id: //depot/dev/client3/rdock/2013.1/src/exe/rbdock.cxx#4 $)

>  <Rbt.Library>
libRbt.so (2013.1, Build901 2013/11/27)

>  <Rbt.Parameter_File>
/home/malgorzata/Desktop/rDock_2013.1_src/data/scripts/soft_docking.prm

>  <Rbt.Receptor>
cavity.prm

>  <SCORE>
-23.377

>  <SCORE.INTER>
-20.6573

>  <SCORE.INTER.CONST>
1

>  <SCORE.INTER.POLAR>
-2.46723

>  <SCORE.INTER.REPUL>
0

>  <SCORE.INTER.ROT>
5

>  <SCORE.INTER.VDW>
-22.6687

>  <SCORE.INTER.norm>
-0.794512

>  <SCORE.INTRA>
-0.458073

>  <SCORE.INTRA.DIHEDRAL>
-1.71454

>  <SCORE.INTRA.DIHEDRAL.0>
18.1022

>  <SCORE.INTRA.POLAR>
0

>  <SCORE.INTRA.POLAR.0>
0

>  <SCORE.INTRA.REPUL>
0

>  <SCORE.INTRA.REPUL.0>
0

>  <SCORE.INTRA.VDW>
-0.115166

>  <SCORE.INTRA.VDW.0>
-2.81782

>  <SCORE.INTRA.norm>
-0.0176182

>  <SCORE.RESTR>
0.150872

>  <SCORE.RESTR.CAVITY>
0.150872

>  <SCORE.RESTR.norm>
0.00580276

>  <SCORE.SYSTEM>
-2.41249

>  <SCORE.SYSTEM.CONST>
0

>  <SCORE.SYSTEM.DIHEDRAL>
3.67164

>  <SCORE.SYSTEM.POLAR>
-0.809678

>  <SCORE.SYSTEM.VDW>
-1.49541

>  <SCORE.SYSTEM.norm>
-0.0927881

>  <SCORE.heavy>
26

>  <SCORE.norm>
-0.899116

$$$$
S58.pdb
  rDOCK(R)          3D
libRbt.so/2013.1/901 2013/11/27
 28 30  0  0  0  0  0  0  0  0999 V2000
   24.1977   29.9909   26.0937 C   0  0  0  0  0  0
   24.4298   29.0292   27.0294 C   0  0  0  0  0  0
   22.8292   29.7282   25.5611 C   0  0  0  0  0  0
   22.1101   30.4261   24.4456 C   0  0  0  0  0  0
   22.9737   27.3502   28.1230 C   0  0  0  0  0  0
   22.2294   27.8612   29.1939 C   0  0  0  0  0  0
   21.8054   27.0061   30.2002 C   0  0  0  0  0  0
   22.1266   25.6310   30.1295 C   0  0  0  0  0  0
   22.8723   25.1216   29.0533 C   0  0  0  0  0  0
   23.3002   25.9892   28.0454 C   0  0  0  0  0  0
   25.7112   28.8715   27.7831 C   0  0  0  0  0  0
   26.6121   27.8376   27.4216 C   0  0  0  0  0  0
   27.8850   27.7679   28.0176 C   0  0  0  0  0  0
   28.2624   28.7197   28.9610 C   0  0  0  0  0  0
   27.3673   29.7245   29.3445 C   0  0  0  0  0  0
   26.0845   29.8042   28.7530 C   0  0  0  0  0  0
   23.3182   28.2228   27.1234 N   0  0  0  0  0  0
   22.3381   28.7009   26.1991 N   0  0  0  0  0  0
   21.6396   22.8633   30.8008 N   0  0  0  0  0  0
   20.2344   24.8563   31.8282 O   0  0  0  0  0  0
   22.4487   24.6369   32.5609 O   0  0  0  0  0  0
   30.0029   28.7456   29.5755 Br  0  0  0  0  0  0
   23.0173   30.9334   23.5739 F   0  0  0  0  0  0
   21.3115   31.3827   24.9443 F   0  0  0  0  0  0
   21.3607   29.5195   23.8085 F   0  0  0  0  0  0
   21.5616   24.4961   31.4405 S   0  0  0  0  0  0
   21.0424   22.5985   30.0737 H   0  0  0  0  0  0
   22.2816   22.2190   31.1694 H   0  0  0  0  0  0
  1  3  1  0  0  0
  2  1  2  0  0  0
  2 17  1  0  0  0
  3 18  2  0  0  0
  3  4  1  0  0  0
  4 23  1  0  0  0
  4 25  1  0  0  0
  5 17  1  0  0  0
  5  6  2  0  0  0
  7  6  1  0  0  0
  8  7  2  0  0  0
  9 10  2  0  0  0
  9  8  1  0  0  0
 10  5  1  0  0  0
 11  2  1  0  0  0
 12 11  1  0  0  0
 13 12  2  0  0  0
 14 15  2  0  0  0
 14 13  1  0  0  0
 15 16  1  0  0  0
 16 11  2  0  0  0
 17 18  1  0  0  0
 19 28  1  0  0  0
 20 26  2  0  0  0
 22 14  1  0  0  0
 24  4  1  0  0  0
 26  8  1  0  0  0
 26 19  1  0  0  0
 26 21  2  0  0  0
 27 19  1  0  0  0
M  END
>  <CHROM.0>
-112.90500667,-179.75429699,175.46450874

>  <CHROM.1>
27.10782313,88.38390043,-103.59280367,161.17947841,-66.70686301,24.47948207
27.89948144,28.36234186,0.34392272,-0.25282680,-0.87026379

>  <FORMUL>
      S58    C16 H11 Br1 F3 N3 O2 S1

>  <HET>
 S58  A 701      28

>  <HETNAM>
     S58 1-PHENYLSULFONAMIDE-3-TRIFLUOROMETHYL-5-PARABROMOPHENYL
   2 S58 PYRAZOLE

>  <Name>
S58.pdb

>  <RI>
0

>  <Rbt.Current_Directory>
/home/malgorzata/Desktop/rDOCK_IFD/Wyniki/3b_COX2

>  <Rbt.Executable>
rbdock ($Id: //depot/dev/client3/rdock/2013.1/src/exe/rbdock.cxx#4 $)

>  <Rbt.Library>
libRbt.so (2013.1, Build901 2013/11/27)

>  <Rbt.Parameter_File>
/home/malgorzata/Desktop/rDock_2013.1_src/data/scripts/soft_docking.prm

>  <Rbt.Receptor>
cavity.prm

>  <SCORE>
-24.6153

>  <SCORE.INTER>
-23.7711

>  <SCORE.INTER.CONST>
1

>  <SCORE.INTER.POLAR>
-1.60059

>  <SCORE.INTER.REPUL>
0

>  <SCORE.INTER.ROT>
5

>  <SCORE.INTER.VDW>
-28.7291

>  <SCORE.INTER.norm>
-0.914272

>  <SCORE.INTRA>
1.17247

>  <SCORE.INTRA.DIHEDRAL>
8.85649

>  <SCORE.INTRA.DIHEDRAL.0>
18.1022

>  <SCORE.INTRA.POLAR>
0

>  <SCORE.INTRA.POLAR.0>
0

>  <SCORE.INTRA.REPUL>
0

>  <SCORE.INTRA.REPUL.0>
0

>  <SCORE.INTRA.VDW>
-0.598831

>  <SCORE.INTRA.VDW.0>
-2.81782

>  <SCORE.INTRA.norm>
0.0450949

>  <SCORE.RESTR>
0

>  <SCORE.RESTR.CAVITY>
0

>  <SCORE.RESTR.norm>
0

>  <SCORE.SYSTEM>
-2.01672

>  <SCORE.SYSTEM.CONST>
0

>  <SCORE.SYSTEM.DIHEDRAL>
0.890187

>  <SCORE.SYSTEM.POLAR>
-0.234757

>  <SCORE.SYSTEM.VDW>
-1.66364

>  <SCORE.SYSTEM.norm>
-0.0775661

>  <SCORE.heavy>
26

>  <SCORE.norm>
-0.946743

$$$$
S58.pdb
  rDOCK(R)          3D
libRbt.so/2013.1/901 2013/11/27
 28 30  0  0  0  0  0  0  0  0999 V2000
   25.7898   34.9283   29.5082 C   0  0  0  0  0  0
   26.6452   33.9736   29.0486 C   0  0  0  0  0  0
   24.4239   34.4934   29.0953 C   0  0  0  0  0  0
   23.1220   35.2191   29.2595 C   0  0  0  0  0  0
   26.2990   31.7177   28.0861 C   0  0  0  0  0  0
   27.2785   31.5744   27.0952 C   0  0  0  0  0  0
   27.7414   30.3078   26.7709 C   0  0  0  0  0  0
   27.2214   29.1800   27.4467 C   0  0  0  0  0  0
   26.2398   29.3275   28.4411 C   0  0  0  0  0  0
   25.7747   30.6057   28.7596 C   0  0  0  0  0  0
   28.1327   34.0312   29.1857 C   0  0  0  0  0  0
   28.7060   34.4340   30.4186 C   0  0  0  0  0  0
   30.0972   34.3498   30.6131 C   0  0  0  0  0  0
   30.9121   33.8650   29.5936 C   0  0  0  0  0  0
   30.3565   33.4946   28.3640 C   0  0  0  0  0  0
   28.9593   33.5757   28.1565 C   0  0  0  0  0  0
   25.9173   32.9931   28.4135 N   0  0  0  0  0  0
   24.5344   33.3499   28.4759 N   0  0  0  0  0  0
   29.4565   27.3654   27.6903 N   0  0  0  0  0  0
   27.8100   27.3419   25.6189 O   0  0  0  0  0  0
   26.9585   26.5549   27.6544 O   0  0  0  0  0  0
   32.7008   33.5585   29.9319 Br  0  0  0  0  0  0
   23.3465   36.4148   29.8595 F   0  0  0  0  0  0
   22.2632   34.4640   29.9623 F   0  0  0  0  0  0
   22.6158   35.4370   28.0406 F   0  0  0  0  0  0
   27.8337   27.5117   27.0374 S   0  0  0  0  0  0
   30.1195   26.8199   27.2232 H   0  0  0  0  0  0
   29.6987   27.8312   28.5195 H   0  0  0  0  0  0
  1  3  1  0  0  0
  2  1  2  0  0  0
  2 17  1  0  0  0
  3 18  2  0  0  0
  3  4  1  0  0  0
  4 23  1  0  0  0
  4 25  1  0  0  0
  5 17  1  0  0  0
  5  6  2  0  0  0
  7  6  1  0  0  0
  8  7  2  0  0  0
  9 10  2  0  0  0
  9  8  1  0  0  0
 10  5  1  0  0  0
 11  2  1  0  0  0
 12 11  1  0  0  0
 13 12  2  0  0  0
 14 15  2  0  0  0
 14 13  1  0  0  0
 15 16  1  0  0  0
 16 11  2  0  0  0
 17 18  1  0  0  0
 19 28  1  0  0  0
 20 26  2  0  0  0
 22 14  1  0  0  0
 24  4  1  0  0  0
 26  8  1  0  0  0
 26 19  1  0  0  0
 26 21  2  0  0  0
 27 19  1  0  0  0
M  END
>  <CHROM.0>
-165.24180612,-99.09261409,-45.71751392

>  <CHROM.1>
0.70867667,-68.18745729,43.70262033,72.60048688,-147.15620778,27.71460946
32.30287255,28.69363911,-2.68237142,0.12138084,-2.78873949

>  <FORMUL>
      S58    C16 H11 Br1 F3 N3 O2 S1

>  <HET>
 S58  A 701      28

>  <HETNAM>
     S58 1-PHENYLSULFONAMIDE-3-TRIFLUOROMETHYL-5-PARABROMOPHENYL
   2 S58 PYRAZOLE

>  <Name>
S58.pdb

>  <RI>
0

>  <Rbt.Current_Directory>
/home/malgorzata/Desktop/rDOCK_IFD/Wyniki/3b_COX2

>  <Rbt.Executable>
rbdock ($Id: //depot/dev/client3/rdock/2013.1/src/exe/rbdock.cxx#4 $)

>  <Rbt.Library>
libRbt.so (2013.1, Build901 2013/11/27)

>  <Rbt.Parameter_File>
/home/malgorzata/Desktop/rDock_2013.1_src/data/scripts/soft_docking.prm

>  <Rbt.Receptor>
cavity.prm

>  <SCORE>
-24.1909

>  <SCORE.INTER>
-22.3235

>  <SCORE.INTER.CONST>
1

>  <SCORE.INTER.POLAR>
-2.74301

>  <SCORE.INTER.REPUL>
0

>  <SCORE.INTER.ROT>
5

>  <SCORE.INTER.VDW>
-23.3973

>  <SCORE.INTER.norm>
-0.858597

>  <SCORE.INTRA>
0.643648

>  <SCORE.INTRA.DIHEDRAL>
-0.323364

>  <SCORE.INTRA.DIHEDRAL.0>
18.1022

>  <SCORE.INTRA.POLAR>
0

>  <SCORE.INTRA.POLAR.0>
0

>  <SCORE.INTRA.REPUL>
0

>  <SCORE.INTRA.REPUL.0>
0

>  <SCORE.INTRA.VDW>
0.708321

>  <SCORE.INTRA.VDW.0>
-2.81782

>  <SCORE.INTRA.norm>
0.0247557

>  <SCORE.RESTR>
0.560701

>  <SCORE.RESTR.CAVITY>
0.560701

>  <SCORE.RESTR.norm>
0.0215654

>  <SCORE.SYSTEM>
-3.07173

>  <SCORE.SYSTEM.CONST>
0

>  <SCORE.SYSTEM.DIHEDRAL>
1.80138

>  <SCORE.SYSTEM.POLAR>
-0.736208

>  <SCORE.SYSTEM.VDW>
-1.46931

>  <SCORE.SYSTEM.norm>
-0.118143

>  <SCORE.heavy>
26

>  <SCORE.norm>
-0.93042

$$$$
S58.pdb
  rDOCK(R)          3D
libRbt.so/2013.1/901 2013/11/27
 28 30  0  0  0  0  0  0  0  0999 V2000
   22.3071   28.3659   27.3403 C   0  0  0  0  0  0
   23.4951   29.0110   27.5039 C   0  0  0  0  0  0
   22.5580   26.9397   27.6986 C   0  0  0  0  0  0
   21.6199   25.7735   27.6065 C   0  0  0  0  0  0
   25.6468   28.3515   28.5384 C   0  0  0  0  0  0
   26.7790   27.7821   27.9418 C   0  0  0  0  0  0
   28.0345   28.0483   28.4674 C   0  0  0  0  0  0
   28.1548   28.8929   29.5950 C   0  0  0  0  0  0
   27.0171   29.4633   30.1902 C   0  0  0  0  0  0
   25.7551   29.1874   29.6585 C   0  0  0  0  0  0
   23.7237   30.4566   27.1992 C   0  0  0  0  0  0
   24.4421   30.8198   26.0317 C   0  0  0  0  0  0
   24.5366   32.1712   25.6507 C   0  0  0  0  0  0
   23.9185   33.1536   26.4197 C   0  0  0  0  0  0
   23.2338   32.8053   27.5892 C   0  0  0  0  0  0
   23.1329   31.4501   27.9828 C   0  0  0  0  0  0
   24.4343   28.1076   27.9470 N   0  0  0  0  0  0
   23.8053   26.8295   28.0670 N   0  0  0  0  0  0
   30.6069   30.3642   29.1826 N   0  0  0  0  0  0
   30.5253   28.0377   30.4407 O   0  0  0  0  0  0
   29.6176   29.8804   31.5670 O   0  0  0  0  0  0
   23.8669   34.8912   25.7986 Br  0  0  0  0  0  0
   21.2020   25.6330   26.3237 F   0  0  0  0  0  0
   20.5893   25.9482   28.4485 F   0  0  0  0  0  0
   22.2938   24.6743   27.9629 F   0  0  0  0  0  0
   29.8024   29.2603   30.2850 S   0  0  0  0  0  0
   31.0441   30.0158   28.3809 H   0  0  0  0  0  0
   30.6159   31.3279   29.3683 H   0  0  0  0  0  0
  1  3  1  0  0  0
  2  1  2  0  0  0
  2 17  1  0  0  0
  3 18  2  0  0  0
  3  4  1  0  0  0
  4 23  1  0  0  0
  4 25  1  0  0  0
  5 17  1  0  0  0
  5  6  2  0  0  0
  7  6  1  0  0  0
  8  7  2  0  0  0
  9 10  2  0  0  0
  9  8  1  0  0  0
 10  5  1  0  0  0
 11  2  1  0  0  0
 12 11  1  0  0  0
 13 12  2  0  0  0
 14 15  2  0  0  0
 14 13  1  0  0  0
 15 16  1  0  0  0
 16 11  2  0  0  0
 17 18  1  0  0  0
 19 28  1  0  0  0
 20 26  2  0  0  0
 22 14  1  0  0  0
 24  4  1  0  0  0
 26  8  1  0  0  0
 26 19  1  0  0  0
 26 21  2  0  0  0
 27 19  1  0  0  0
M  END
>  <CHROM.0>
131.52708900,117.91635293,-68.68742611

>  <CHROM.1>
58.39204242,-124.65111950,-104.94969721,73.29021690,-81.07449289,25.03680182
29.82141429,27.90083806,2.15992356,-0.40368320,-0.29046428

>  <FORMUL>
      S58    C16 H11 Br1 F3 N3 O2 S1

>  <HET>
 S58  A 701      28

>  <HETNAM>
     S58 1-PHENYLSULFONAMIDE-3-TRIFLUOROMETHYL-5-PARABROMOPHENYL
   2 S58 PYRAZOLE

>  <Name>
S58.pdb

>  <RI>
0

>  <Rbt.Current_Directory>
/home/malgorzata/Desktop/rDOCK_IFD/Wyniki/3b_COX2

>  <Rbt.Executable>
rbdock ($Id: //depot/dev/client3/rdock/2013.1/src/exe/rbdock.cxx#4 $)

>  <Rbt.Library>
libRbt.so (2013.1, Build901 2013/11/27)

>  <Rbt.Parameter_File>
/home/malgorzata/Desktop/rDock_2013.1_src/data/scripts/soft_docking.prm

>  <Rbt.Receptor>
cavity.prm

>  <SCORE>
-22.2374

>  <SCORE.INTER>
-18.6113

>  <SCORE.INTER.CONST>
1

>  <SCORE.INTER.POLAR>
-1.76358

>  <SCORE.INTER.REPUL>
0.103964

>  <SCORE.INTER.ROT>
5

>  <SCORE.INTER.VDW>
-23.535

>  <SCORE.INTER.norm>
-0.715821

>  <SCORE.INTRA>
0.782989

>  <SCORE.INTRA.DIHEDRAL>
6.45889

>  <SCORE.INTRA.DIHEDRAL.0>
18.1022

>  <SCORE.INTRA.POLAR>
0

>  <SCORE.INTRA.POLAR.0>
0

>  <SCORE.INTRA.REPUL>
0

>  <SCORE.INTRA.REPUL.0>
0

>  <SCORE.INTRA.VDW>
-0.508789

>  <SCORE.INTRA.VDW.0>
-2.81782

>  <SCORE.INTRA.norm>
0.030115

>  <SCORE.RESTR>
0.0233843

>  <SCORE.RESTR.CAVITY>
0.0233843

>  <SCORE.RESTR.norm>
0.000899395

>  <SCORE.SYSTEM>
-4.43242

>  <SCORE.SYSTEM.CONST>
0

>  <SCORE.SYSTEM.DIHEDRAL>
1.14846

>  <SCORE.SYSTEM.POLAR>
-0.932492

>  <SCORE.SYSTEM.VDW>
-1.83618

>  <SCORE.SYSTEM.norm>
-0.170478

>  <SCORE.heavy>
26

>  <SCORE.norm>
-0.855284

$$$$
S58.pdb
  rDOCK(R)          3D
libRbt.so/2013.1/901 2013/11/27
 28 30  0  0  0  0  0  0  0  0999 V2000
   23.0878   28.7175   27.3939 C   0  0  0  0  0  0
   24.3113   29.2991   27.5322 C   0  0  0  0  0  0
   23.3006   27.2542   27.5908 C   0  0  0  0  0  0
   22.3084   26.1383   27.4539 C   0  0  0  0  0  0
   26.4991   28.4602   28.3354 C   0  0  0  0  0  0
   26.6780   29.4223   29.3375 C   0  0  0  0  0  0
   27.9204   29.5592   29.9386 C   0  0  0  0  0  0
   28.9874   28.7241   29.5347 C   0  0  0  0  0  0
   28.8041   27.7592   28.5300 C   0  0  0  0  0  0
   27.5514   27.6297   27.9255 C   0  0  0  0  0  0
   24.5810   30.7588   27.3550 C   0  0  0  0  0  0
   23.8355   31.7035   28.1054 C   0  0  0  0  0  0
   24.1771   33.0680   28.0640 C   0  0  0  0  0  0
   25.2531   33.4906   27.2881 C   0  0  0  0  0  0
   25.9737   32.5682   26.5216 C   0  0  0  0  0  0
   25.6391   31.1939   26.5544 C   0  0  0  0  0  0
   25.2388   28.3218   27.8140 N   0  0  0  0  0  0
   24.5646   27.0619   27.8537 N   0  0  0  0  0  0
   30.3938   28.6905   32.0583 N   0  0  0  0  0  0
   31.1723   30.1639   30.0027 O   0  0  0  0  0  0
   31.4687   27.8478   29.8150 O   0  0  0  0  0  0
   25.8236   35.2422   27.4077 Br  0  0  0  0  0  0
   22.8773   25.1120   26.7734 F   0  0  0  0  0  0
   21.1994   26.5848   26.8437 F   0  0  0  0  0  0
   21.9911   25.7167   28.6832 F   0  0  0  0  0  0
   30.6210   28.8867   30.3288 S   0  0  0  0  0  0
   29.8705   27.9373   32.3961 H   0  0  0  0  0  0
   30.7925   29.3326   32.6844 H   0  0  0  0  0  0
  1  3  1  0  0  0
  2  1  2  0  0  0
  2 17  1  0  0  0
  3 18  2  0  0  0
  3  4  1  0  0  0
  4 23  1  0  0  0
  4 25  1  0  0  0
  5 17  1  0  0  0
  5  6  2  0  0  0
  7  6  1  0  0  0
  8  7  2  0  0  0
  9 10  2  0  0  0
  9  8  1  0  0  0
 10  5  1  0  0  0
 11  2  1  0  0  0
 12 11  1  0  0  0
 13 12  2  0  0  0
 14 15  2  0  0  0
 14 13  1  0  0  0
 15 16  1  0  0  0
 16 11  2  0  0  0
 17 18  1  0  0  0
 19 28  1  0  0  0
 20 26  2  0  0  0
 22 14  1  0  0  0
 24  4  1  0  0  0
 26  8  1  0  0  0
 26 19  1  0  0  0
 26 21  2  0  0  0
 27 19  1  0  0  0
M  END
>  <CHROM.0>
-120.93447597,173.76597813,-154.81621807

>  <CHROM.1>
135.83963564,38.52401287,54.75533553,55.78331908,48.50960409,26.07084996
29.94856092,28.24957030,2.14557209,0.37524044,2.99539290

>  <FORMUL>
      S58    C16 H11 Br1 F3 N3 O2 S1

>  <HET>
 S58  A 701      28

>  <HETNAM>
     S58 1-PHENYLSULFONAMIDE-3-TRIFLUOROMETHYL-5-PARABROMOPHENYL
   2 S58 PYRAZOLE

>  <Name>
S58.pdb

>  <RI>
0

>  <Rbt.Current_Directory>
/home/malgorzata/Desktop/rDOCK_IFD/Wyniki/3b_COX2

>  <Rbt.Executable>
rbdock ($Id: //depot/dev/client3/rdock/2013.1/src/exe/rbdock.cxx#4 $)

>  <Rbt.Library>
libRbt.so (2013.1, Build901 2013/11/27)

>  <Rbt.Parameter_File>
/home/malgorzata/Desktop/rDock_2013.1_src/data/scripts/soft_docking.prm

>  <Rbt.Receptor>
cavity.prm

>  <SCORE>
-17.937

>  <SCORE.INTER>
-16.5896

>  <SCORE.INTER.CONST>
1

>  <SCORE.INTER.POLAR>
-1.34796

>  <SCORE.INTER.REPUL>
0.0429734

>  <SCORE.INTER.ROT>
5

>  <SCORE.INTER.VDW>
-22.6214

>  <SCORE.INTER.norm>
-0.638062

>  <SCORE.INTRA>
-0.447192

>  <SCORE.INTRA.DIHEDRAL>
-0.653069

>  <SCORE.INTRA.DIHEDRAL.0>
18.1022

>  <SCORE.INTRA.POLAR>
0

>  <SCORE.INTRA.POLAR.0>
0

>  <SCORE.INTRA.REPUL>
0

>  <SCORE.INTRA.REPUL.0>
0

>  <SCORE.INTRA.VDW>
-0.316578

>  <SCORE.INTRA.VDW.0>
-2.81782

>  <SCORE.INTRA.norm>
-0.0171997

>  <SCORE.RESTR>
0.213369

>  <SCORE.RESTR.CAVITY>
0.213369

>  <SCORE.RESTR.norm>
0.00820652

>  <SCORE.SYSTEM>
-1.1136

>  <SCORE.SYSTEM.CONST>
0

>  <SCORE.SYSTEM.DIHEDRAL>
3.51191

>  <SCORE.SYSTEM.POLAR>
-0.37136

>  <SCORE.SYSTEM.VDW>
-1.60693

>  <SCORE.SYSTEM.norm>
-0.0428307

>  <SCORE.heavy>
26

>  <SCORE.norm>
-0.689885

$$$$
S58.pdb
  rDOCK(R)          3D
libRbt.so/2013.1/901 2013/11/27
 28 30  0  0  0  0  0  0  0  0999 V2000
   23.7327   27.5146   27.5008 C   0  0  0  0  0  0
   24.3899   28.6837   27.7362 C   0  0  0  0  0  0
   22.3453   27.8926   27.1039 C   0  0  0  0  0  0
   21.1757   26.9967   26.8247 C   0  0  0  0  0  0
   23.8276   31.0556   27.2969 C   0  0  0  0  0  0
   22.8781   31.9978   27.7121 C   0  0  0  0  0  0
   23.1573   33.3503   27.5848 C   0  0  0  0  0  0
   24.3969   33.7593   27.0414 C   0  0  0  0  0  0
   25.3476   32.8115   26.6270 C   0  0  0  0  0  0
   25.0581   31.4507   26.7539 C   0  0  0  0  0  0
   25.8015   28.7803   28.2189 C   0  0  0  0  0  0
   26.0557   29.1049   29.5758 C   0  0  0  0  0  0
   27.3676   29.0524   30.0821 C   0  0  0  0  0  0
   28.4181   28.6758   29.2495 C   0  0  0  0  0  0
   28.1787   28.3838   27.9022 C   0  0  0  0  0  0
   26.8641   28.4340   27.3816 C   0  0  0  0  0  0
   23.5308   29.7325   27.4984 N   0  0  0  0  0  0
   22.2691   29.1956   27.0940 N   0  0  0  0  0  0
   24.4362   36.0078   25.2275 N   0  0  0  0  0  0
   26.1492   35.7495   27.2278 O   0  0  0  0  0  0
   23.9325   36.2538   27.7934 O   0  0  0  0  0  0
   30.0946   28.4039   29.9727 Br  0  0  0  0  0  0
   20.1583   27.3107   27.6653 F   0  0  0  0  0  0
   21.5440   25.7120   26.9486 F   0  0  0  0  0  0
   20.7789   27.2181   25.5666 F   0  0  0  0  0  0
   24.7793   35.5354   26.8829 S   0  0  0  0  0  0
   24.6251   36.9211   24.9350 H   0  0  0  0  0  0
   24.0588   35.3575   24.5968 H   0  0  0  0  0  0
  1  3  1  0  0  0
  2  1  2  0  0  0
  2 17  1  0  0  0
  3 18  2  0  0  0
  3  4  1  0  0  0
  4 23  1  0  0  0
  4 25  1  0  0  0
  5 17  1  0  0  0
  5  6  2  0  0  0
  7  6  1  0  0  0
  8  7  2  0  0  0
  9 10  2  0  0  0
  9  8  1  0  0  0
 10  5  1  0  0  0
 11  2  1  0  0  0
 12 11  1  0  0  0
 13 12  2  0  0  0
 14 15  2  0  0  0
 14 13  1  0  0  0
 15 16  1  0  0  0
 16 11  2  0  0  0
 17 18  1  0  0  0
 19 28  1  0  0  0
 20 26  2  0  0  0
 22 14  1  0  0  0
 24  4  1  0  0  0
 26  8  1  0  0  0
 26 19  1  0  0  0
 26 21  2  0  0  0
 27 19  1  0  0  0
M  END
>  <CHROM.0>
44.04306148,-93.86556074,-170.90048520

>  <CHROM.1>
121.43428654,-149.52484189,-103.63572834,-98.19219270,-176.80265233,25.19500621
30.25885757,27.83571556,0.77209877,0.34626261,2.99241504

>  <FORMUL>
      S58    C16 H11 Br1 F3 N3 O2 S1

>  <HET>
 S58  A 701      28

>  <HETNAM>
     S58 1-PHENYLSULFONAMIDE-3-TRIFLUOROMETHYL-5-PARABROMOPHENYL
   2 S58 PYRAZOLE

>  <Name>
S58.pdb

>  <RI>
0

>  <Rbt.Current_Directory>
/home/malgorzata/Desktop/rDOCK_IFD/Wyniki/3b_COX2

>  <Rbt.Executable>
rbdock ($Id: //depot/dev/client3/rdock/2013.1/src/exe/rbdock.cxx#4 $)

>  <Rbt.Library>
libRbt.so (2013.1, Build901 2013/11/27)

>  <Rbt.Parameter_File>
/home/malgorzata/Desktop/rDock_2013.1_src/data/scripts/soft_docking.prm

>  <Rbt.Receptor>
cavity.prm

>  <SCORE>
-16.0217

>  <SCORE.INTER>
-14.023

>  <SCORE.INTER.CONST>
1

>  <SCORE.INTER.POLAR>
-0.463024

>  <SCORE.INTER.REPUL>
0

>  <SCORE.INTER.ROT>
5

>  <SCORE.INTER.VDW>
-22.8487

>  <SCORE.INTER.norm>
-0.539345

>  <SCORE.INTRA>
0.109269

>  <SCORE.INTRA.DIHEDRAL>
1.64365

>  <SCORE.INTRA.DIHEDRAL.0>
18.1022

>  <SCORE.INTRA.POLAR>
0

>  <SCORE.INTRA.POLAR.0>
0

>  <SCORE.INTRA.REPUL>
0

>  <SCORE.INTRA.REPUL.0>
0

>  <SCORE.INTRA.VDW>
-0.219461

>  <SCORE.INTRA.VDW.0>
-2.81782

>  <SCORE.INTRA.norm>
0.00420264

>  <SCORE.RESTR>
0.0151223

>  <SCORE.RESTR.CAVITY>
0.0151223

>  <SCORE.RESTR.norm>
0.000581628

>  <SCORE.SYSTEM>
-2.12315

>  <SCORE.SYSTEM.CONST>
0

>  <SCORE.SYSTEM.DIHEDRAL>
1.19622

>  <SCORE.SYSTEM.POLAR>
-0.311642

>  <SCORE.SYSTEM.VDW>
-1.66168

>  <SCORE.SYSTEM.norm>
-0.0816596

>  <SCORE.heavy>
26

>  <SCORE.norm>
-0.616221

$$$$
S58.pdb
  rDOCK(R)          3D
libRbt.so/2013.1/901 2013/11/27
 28 30  0  0  0  0  0  0  0  0999 V2000
   22.2421   28.4031   26.7919 C   0  0  0  0  0  0
   23.1916   27.9654   27.6643 C   0  0  0  0  0  0
   22.7509   29.6919   26.2391 C   0  0  0  0  0  0
   22.0643   30.6460   25.3082 C   0  0  0  0  0  0
   25.5134   28.6876   28.1362 C   0  0  0  0  0  0
   26.3139   27.7484   27.4737 C   0  0  0  0  0  0
   27.6331   27.5775   27.8663 C   0  0  0  0  0  0
   28.1525   28.3556   28.9265 C   0  0  0  0  0  0
   27.3471   29.2977   29.5881 C   0  0  0  0  0  0
   26.0179   29.4615   29.1905 C   0  0  0  0  0  0
   23.0716   26.7305   28.4983 C   0  0  0  0  0  0
   22.9835   26.8455   29.9090 C   0  0  0  0  0  0
   22.7195   25.7094   30.6965 C   0  0  0  0  0  0
   22.5393   24.4702   30.0879 C   0  0  0  0  0  0
   22.6551   24.3441   28.6993 C   0  0  0  0  0  0
   22.9211   25.4790   27.8973 C   0  0  0  0  0  0
   24.2351   28.8630   27.6731 N   0  0  0  0  0  0
   23.9256   29.9191   26.7608 N   0  0  0  0  0  0
   30.6953   27.1815   28.2172 N   0  0  0  0  0  0
   29.9239   27.5234   30.7252 O   0  0  0  0  0  0
   30.4866   29.4521   29.5206 O   0  0  0  0  0  0
   21.9842   23.0335   31.1055 Br  0  0  0  0  0  0
   20.7211   30.4863   25.4111 F   0  0  0  0  0  0
   22.4933   30.4476   24.0519 F   0  0  0  0  0  0
   22.3805   31.8895   25.6866 F   0  0  0  0  0  0
   29.8898   28.1484   29.4408 S   0  0  0  0  0  0
   31.4835   27.5360   27.7606 H   0  0  0  0  0  0
   30.3580   26.2874   27.9937 H   0  0  0  0  0  0
  1  3  1  0  0  0
  2  1  2  0  0  0
  2 17  1  0  0  0
  3 18  2  0  0  0
  3  4  1  0  0  0
  4 23  1  0  0  0
  4 25  1  0  0  0
  5 17  1  0  0  0
  5  6  2  0  0  0
  7  6  1  0  0  0
  8  7  2  0  0  0
  9 10  2  0  0  0
  9  8  1  0  0  0
 10  5  1  0  0  0
 11  2  1  0  0  0
 12 11  1  0  0  0
 13 12  2  0  0  0
 14 15  2  0  0  0
 14 13  1  0  0  0
 15 16  1  0  0  0
 16 11  2  0  0  0
 17 18  1  0  0  0
 19 28  1  0  0  0
 20 26  2  0  0  0
 22 14  1  0  0  0
 24  4  1  0  0  0
 26  8  1  0  0  0
 26 19  1  0  0  0
 26 21  2  0  0  0
 27 19  1  0  0  0
M  END
>  <CHROM.0>
-36.43880084,-92.50503495,-136.66542265

>  <CHROM.1>
23.93398226,64.89124459,-113.73512170,11.77022605,122.52098195,24.60268787
27.39529334,28.53978977,2.46273320,0.22626943,2.49975529

>  <FORMUL>
      S58    C16 H11 Br1 F3 N3 O2 S1

>  <HET>
 S58  A 701      28

>  <HETNAM>
     S58 1-PHENYLSULFONAMIDE-3-TRIFLUOROMETHYL-5-PARABROMOPHENYL
   2 S58 PYRAZOLE

>  <Name>
S58.pdb

>  <RI>
0

>  <Rbt.Current_Directory>
/home/malgorzata/Desktop/rDOCK_IFD/Wyniki/3b_COX2

>  <Rbt.Executable>
rbdock ($Id: //depot/dev/client3/rdock/2013.1/src/exe/rbdock.cxx#4 $)

>  <Rbt.Library>
libRbt.so (2013.1, Build901 2013/11/27)

>  <Rbt.Parameter_File>
/home/malgorzata/Desktop/rDock_2013.1_src/data/scripts/soft_docking.prm

>  <Rbt.Receptor>
cavity.prm

>  <SCORE>
-24.8601

>  <SCORE.INTER>
-25.6416

>  <SCORE.INTER.CONST>
1

>  <SCORE.INTER.POLAR>
-2.73101

>  <SCORE.INTER.REPUL>
0

>  <SCORE.INTER.ROT>
5

>  <SCORE.INTER.VDW>
-26.7562

>  <SCORE.INTER.norm>
-0.986215

>  <SCORE.INTRA>
0.660728

>  <SCORE.INTRA.DIHEDRAL>
6.36107

>  <SCORE.INTRA.DIHEDRAL.0>
18.1022

>  <SCORE.INTRA.POLAR>
0

>  <SCORE.INTRA.POLAR.0>
0

>  <SCORE.INTRA.REPUL>
0

>  <SCORE.INTRA.REPUL.0>
0

>  <SCORE.INTRA.VDW>
-0.611487

>  <SCORE.INTRA.VDW.0>
-2.81782

>  <SCORE.INTRA.norm>
0.0254126

>  <SCORE.RESTR>
0

>  <SCORE.RESTR.CAVITY>
0

>  <SCORE.RESTR.norm>
0

>  <SCORE.SYSTEM>
0.120812

>  <SCORE.SYSTEM.CONST>
0

>  <SCORE.SYSTEM.DIHEDRAL>
6.76595

>  <SCORE.SYSTEM.POLAR>
-0.506777

>  <SCORE.SYSTEM.VDW>
-1.53912

>  <SCORE.SYSTEM.norm>
0.00464662

>  <SCORE.heavy>
26

>  <SCORE.norm>
-0.956156

$$$$
