S58.pdb
  rDOCK(R)          3D
libRbt.so/2013.1/901 2013/11/27
 28 30  0  0  0  0  0  0  0  0999 V2000
   22.6543   25.4452   29.6745 C   0  0  0  0  0  0
   23.3343   26.5643   30.0480 C   0  0  0  0  0  0
   22.3054   25.6337   28.2365 C   0  0  0  0  0  0
   21.4773   24.7507   27.3516 C   0  0  0  0  0  0
   24.2953   28.4601   28.7762 C   0  0  0  0  0  0
   23.7327   29.6708   28.3528 C   0  0  0  0  0  0
   24.5432   30.7871   28.2092 C   0  0  0  0  0  0
   25.9243   30.6888   28.4955 C   0  0  0  0  0  0
   26.4852   29.4730   28.9212 C   0  0  0  0  0  0
   25.6639   28.3513   29.0593 C   0  0  0  0  0  0
   23.8286   26.8331   31.4331 C   0  0  0  0  0  0
   23.8214   25.7891   32.3928 C   0  0  0  0  0  0
   24.4201   25.9811   33.6518 C   0  0  0  0  0  0
   25.0255   27.1980   33.9537 C   0  0  0  0  0  0
   25.0096   28.2425   33.0228 C   0  0  0  0  0  0
   24.4099   28.0615   31.7541 C   0  0  0  0  0  0
   23.4442   27.4014   28.9609 N   0  0  0  0  0  0
   22.7996   26.7776   27.8478 N   0  0  0  0  0  0
   27.2460   32.4322   26.6084 N   0  0  0  0  0  0
   28.2248   31.9162   29.0121 O   0  0  0  0  0  0
   26.3166   33.2718   28.9169 O   0  0  0  0  0  0
   25.9903   27.3663   35.5185 Br  0  0  0  0  0  0
   20.4166   24.2790   28.0533 F   0  0  0  0  0  0
   22.2330   23.7544   26.8639 F   0  0  0  0  0  0
   21.0254   25.4941   26.3354 F   0  0  0  0  0  0
   26.9958   32.1544   28.3234 S   0  0  0  0  0  0
   28.1405   32.6459   26.2774 H   0  0  0  0  0  0
   26.4919   32.3708   25.9833 H   0  0  0  0  0  0
  1  3  1  0  0  0
  2  1  2  0  0  0
  2 17  1  0  0  0
  3 18  2  0  0  0
  3  4  1  0  0  0
  4 23  1  0  0  0
  4 25  1  0  0  0
  5 17  1  0  0  0
  5  6  2  0  0  0
  7  6  1  0  0  0
  8  7  2  0  0  0
  9 10  2  0  0  0
  9  8  1  0  0  0
 10  5  1  0  0  0
 11  2  1  0  0  0
 12 11  1  0  0  0
 13 12  2  0  0  0
 14 15  2  0  0  0
 14 13  1  0  0  0
 15 16  1  0  0  0
 16 11  2  0  0  0
 17 18  1  0  0  0
 19 28  1  0  0  0
 20 26  2  0  0  0
 22 14  1  0  0  0
 24  4  1  0  0  0
 26  8  1  0  0  0
 26 19  1  0  0  0
 26 21  2  0  0  0
 27 19  1  0  0  0
M  END
>  <CHROM.0>
51.71118800,60.46346874,-109.75544409

>  <CHROM.1>
39.83269791,-129.97720616,11.84364658,-74.48985480,-135.97952254,24.60308320
28.00709189,30.29799676,2.56179601,-0.90532671,-1.13398292

>  <FORMUL>
      S58    C16 H11 Br1 F3 N3 O2 S1

>  <HET>
 S58  A 701      28

>  <HETNAM>
     S58 1-PHENYLSULFONAMIDE-3-TRIFLUOROMETHYL-5-PARABROMOPHENYL
   2 S58 PYRAZOLE

>  <Name>
S58.pdb

>  <RI>
0

>  <Rbt.Current_Directory>
/home/malgorzata/Desktop/rDOCK_IFD/Wyniki/3a_COX2/IFD

>  <Rbt.Executable>
rbdock ($Id: //depot/dev/client3/rdock/2013.1/src/exe/rbdock.cxx#4 $)

>  <Rbt.Library>
libRbt.so (2013.1, Build901 2013/11/27)

>  <Rbt.Parameter_File>
/home/malgorzata/Desktop/rDock_2013.1_src/data/scripts/hard_docking.prm

>  <Rbt.Receptor>
cavity.prm

>  <SCORE>
-17.384

>  <SCORE.INTER>
-11.8832

>  <SCORE.INTER.CONST>
1

>  <SCORE.INTER.POLAR>
-1.70113

>  <SCORE.INTER.REPUL>
0

>  <SCORE.INTER.ROT>
5

>  <SCORE.INTER.VDW>
-16.4994

>  <SCORE.INTER.norm>
-0.457045

>  <SCORE.INTRA>
-2.39443

>  <SCORE.INTRA.DIHEDRAL>
-5.67247

>  <SCORE.INTRA.DIHEDRAL.0>
18.1022

>  <SCORE.INTRA.POLAR>
0

>  <SCORE.INTRA.POLAR.0>
0

>  <SCORE.INTRA.REPUL>
0

>  <SCORE.INTRA.REPUL.0>
0

>  <SCORE.INTRA.VDW>
0.441801

>  <SCORE.INTRA.VDW.0>
-2.81782

>  <SCORE.INTRA.norm>
-0.0920935

>  <SCORE.RESTR>
0.798334

>  <SCORE.RESTR.CAVITY>
0.798334

>  <SCORE.RESTR.norm>
0.0307052

>  <SCORE.SYSTEM>
-3.90469

>  <SCORE.SYSTEM.CONST>
0

>  <SCORE.SYSTEM.DIHEDRAL>
0.782205

>  <SCORE.SYSTEM.POLAR>
-0.959166

>  <SCORE.SYSTEM.VDW>
-1.03463

>  <SCORE.SYSTEM.norm>
-0.15018

>  <SCORE.heavy>
26

>  <SCORE.norm>
-0.668614

$$$$
S58.pdb
  rDOCK(R)          3D
libRbt.so/2013.1/901 2013/11/27
 28 30  0  0  0  0  0  0  0  0999 V2000
   20.8527   27.5181   27.4673 C   0  0  0  0  0  0
   21.7927   28.3751   27.9534 C   0  0  0  0  0  0
   21.5764   26.2575   27.1316 C   0  0  0  0  0  0
   21.0426   25.0191   26.4759 C   0  0  0  0  0  0
   24.1544   28.0797   28.6392 C   0  0  0  0  0  0
   25.3532   28.0953   27.9150 C   0  0  0  0  0  0
   26.5249   28.4911   28.5427 C   0  0  0  0  0  0
   26.4927   28.8764   29.9027 C   0  0  0  0  0  0
   25.2882   28.8606   30.6258 C   0  0  0  0  0  0
   24.1125   28.4566   29.9887 C   0  0  0  0  0  0
   21.5216   29.7872   28.3624 C   0  0  0  0  0  0
   20.1920   30.1892   28.6484 C   0  0  0  0  0  0
   19.9378   31.4679   29.1782 C   0  0  0  0  0  0
   20.9955   32.3386   29.4268 C   0  0  0  0  0  0
   22.3067   31.9598   29.1186 C   0  0  0  0  0  0
   22.5745   30.6772   28.5848 C   0  0  0  0  0  0
   23.0134   27.7392   27.9597 N   0  0  0  0  0  0
   22.8321   26.4157   27.4507 N   0  0  0  0  0  0
   29.3664   29.0508   29.6596 N   0  0  0  0  0  0
   28.1412   28.7286   31.9828 O   0  0  0  0  0  0
   27.9348   30.8267   30.9613 O   0  0  0  0  0  0
   20.6740   33.9236   30.3169 Br  0  0  0  0  0  0
   20.7722   25.2814   25.1727 F   0  0  0  0  0  0
   19.9541   24.5873   27.1319 F   0  0  0  0  0  0
   21.9919   24.0787   26.5381 F   0  0  0  0  0  0
   28.0255   29.4118   30.7332 S   0  0  0  0  0  0
   29.9900   28.3333   29.8871 H   0  0  0  0  0  0
   29.4888   29.5650   28.8327 H   0  0  0  0  0  0
  1  3  1  0  0  0
  2  1  2  0  0  0
  2 17  1  0  0  0
  3 18  2  0  0  0
  3  4  1  0  0  0
  4 23  1  0  0  0
  4 25  1  0  0  0
  5 17  1  0  0  0
  5  6  2  0  0  0
  7  6  1  0  0  0
  8  7  2  0  0  0
  9 10  2  0  0  0
  9  8  1  0  0  0
 10  5  1  0  0  0
 11  2  1  0  0  0
 12 11  1  0  0  0
 13 12  2  0  0  0
 14 15  2  0  0  0
 14 13  1  0  0  0
 15 16  1  0  0  0
 16 11  2  0  0  0
 17 18  1  0  0  0
 19 28  1  0  0  0
 20 26  2  0  0  0
 22 14  1  0  0  0
 24  4  1  0  0  0
 26  8  1  0  0  0
 26 19  1  0  0  0
 26 21  2  0  0  0
 27 19  1  0  0  0
M  END
>  <CHROM.0>
51.96782188,63.32025687,156.12444872

>  <CHROM.1>
70.14331452,-132.07161149,19.34092242,-10.12173260,-109.51106625,23.17581967
29.31469436,28.96672778,1.73413390,0.28355544,-2.71671057

>  <FORMUL>
      S58    C16 H11 Br1 F3 N3 O2 S1

>  <HET>
 S58  A 701      28

>  <HETNAM>
     S58 1-PHENYLSULFONAMIDE-3-TRIFLUOROMETHYL-5-PARABROMOPHENYL
   2 S58 PYRAZOLE

>  <Name>
S58.pdb

>  <RI>
0

>  <Rbt.Current_Directory>
/home/malgorzata/Desktop/rDOCK_IFD/Wyniki/3a_COX2/IFD

>  <Rbt.Executable>
rbdock ($Id: //depot/dev/client3/rdock/2013.1/src/exe/rbdock.cxx#4 $)

>  <Rbt.Library>
libRbt.so (2013.1, Build901 2013/11/27)

>  <Rbt.Parameter_File>
/home/malgorzata/Desktop/rDock_2013.1_src/data/scripts/hard_docking.prm

>  <Rbt.Receptor>
cavity.prm

>  <SCORE>
-10.3202

>  <SCORE.INTER>
-3.7786

>  <SCORE.INTER.CONST>
1

>  <SCORE.INTER.POLAR>
-1.27853

>  <SCORE.INTER.REPUL>
0

>  <SCORE.INTER.ROT>
5

>  <SCORE.INTER.VDW>
-9.8316

>  <SCORE.INTER.norm>
-0.145331

>  <SCORE.INTRA>
-2.49825

>  <SCORE.INTRA.DIHEDRAL>
-5.34913

>  <SCORE.INTRA.DIHEDRAL.0>
18.1022

>  <SCORE.INTRA.POLAR>
0

>  <SCORE.INTRA.POLAR.0>
0

>  <SCORE.INTRA.REPUL>
0

>  <SCORE.INTRA.REPUL.0>
0

>  <SCORE.INTRA.VDW>
0.17631

>  <SCORE.INTRA.VDW.0>
-2.81782

>  <SCORE.INTRA.norm>
-0.0960866

>  <SCORE.RESTR>
0

>  <SCORE.RESTR.CAVITY>
0

>  <SCORE.RESTR.norm>
0

>  <SCORE.SYSTEM>
-4.04336

>  <SCORE.SYSTEM.CONST>
0

>  <SCORE.SYSTEM.DIHEDRAL>
0.830579

>  <SCORE.SYSTEM.POLAR>
-0.959166

>  <SCORE.SYSTEM.VDW>
-1.19748

>  <SCORE.SYSTEM.norm>
-0.155514

>  <SCORE.heavy>
26

>  <SCORE.norm>
-0.396931

$$$$
S58.pdb
  rDOCK(R)          3D
libRbt.so/2013.1/901 2013/11/27
 28 30  0  0  0  0  0  0  0  0999 V2000
   28.9071   34.5659   28.8134 C   0  0  0  0  0  0
   27.7350   33.8962   28.6343 C   0  0  0  0  0  0
   29.8585   33.5829   29.4082 C   0  0  0  0  0  0
   31.2588   33.8125   29.8928 C   0  0  0  0  0  0
   27.1207   31.5005   28.7698 C   0  0  0  0  0  0
   26.6948   30.7216   29.8531 C   0  0  0  0  0  0
   25.8564   29.6398   29.6284 C   0  0  0  0  0  0
   25.4406   29.3405   28.3105 C   0  0  0  0  0  0
   25.8689   30.1247   27.2263 C   0  0  0  0  0  0
   26.7169   31.2102   27.4592 C   0  0  0  0  0  0
   26.4770   34.5136   28.1135 C   0  0  0  0  0  0
   25.3340   33.7007   27.9042 C   0  0  0  0  0  0
   24.1021   34.2873   27.5596 C   0  0  0  0  0  0
   24.0046   35.6700   27.4288 C   0  0  0  0  0  0
   25.1352   36.4753   27.6040 C   0  0  0  0  0  0
   26.3793   35.8970   27.9497 C   0  0  0  0  0  0
   27.8992   32.5940   29.0488 N   0  0  0  0  0  0
   29.2421   32.4372   29.5130 N   0  0  0  0  0  0
   23.5705   27.5090   29.5335 N   0  0  0  0  0  0
   25.0863   26.8441   27.4690 O   0  0  0  0  0  0
   23.3352   28.3439   27.0545 O   0  0  0  0  0  0
   22.3452   36.4424   27.1884 Br  0  0  0  0  0  0
   31.5842   32.8552   30.7972 F   0  0  0  0  0  0
   31.3662   35.0449   30.4136 F   0  0  0  0  0  0
   32.0800   33.7091   28.8419 F   0  0  0  0  0  0
   24.3271   27.9287   28.0063 S   0  0  0  0  0  0
   24.0762   27.0085   30.2036 H   0  0  0  0  0  0
   22.6443   27.7777   29.7157 H   0  0  0  0  0  0
  1  3  1  0  0  0
  2  1  2  0  0  0
  2 17  1  0  0  0
  3 18  2  0  0  0
  3  4  1  0  0  0
  4 23  1  0  0  0
  4 25  1  0  0  0
  5 17  1  0  0  0
  5  6  2  0  0  0
  7  6  1  0  0  0
  8  7  2  0  0  0
  9 10  2  0  0  0
  9  8  1  0  0  0
 10  5  1  0  0  0
 11  2  1  0  0  0
 12 11  1  0  0  0
 13 12  2  0  0  0
 14 15  2  0  0  0
 14 13  1  0  0  0
 15 16  1  0  0  0
 16 11  2  0  0  0
 17 18  1  0  0  0
 19 28  1  0  0  0
 20 26  2  0  0  0
 22 14  1  0  0  0
 24  4  1  0  0  0
 26  8  1  0  0  0
 26 19  1  0  0  0
 26 21  2  0  0  0
 27 19  1  0  0  0
M  END
>  <CHROM.0>
-100.69175121,-159.68712538,-128.88076819

>  <CHROM.1>
156.65118904,-128.94720350,176.79168255,18.13609497,-77.13543994,26.19068111
32.77177741,28.37824592,-0.09878648,-0.29073611,-0.05882161

>  <FORMUL>
      S58    C16 H11 Br1 F3 N3 O2 S1

>  <HET>
 S58  A 701      28

>  <HETNAM>
     S58 1-PHENYLSULFONAMIDE-3-TRIFLUOROMETHYL-5-PARABROMOPHENYL
   2 S58 PYRAZOLE

>  <Name>
S58.pdb

>  <RI>
0

>  <Rbt.Current_Directory>
/home/malgorzata/Desktop/rDOCK_IFD/Wyniki/3a_COX2/IFD

>  <Rbt.Executable>
rbdock ($Id: //depot/dev/client3/rdock/2013.1/src/exe/rbdock.cxx#4 $)

>  <Rbt.Library>
libRbt.so (2013.1, Build901 2013/11/27)

>  <Rbt.Parameter_File>
/home/malgorzata/Desktop/rDock_2013.1_src/data/scripts/hard_docking.prm

>  <Rbt.Receptor>
cavity.prm

>  <SCORE>
-13.4139

>  <SCORE.INTER>
-11.2152

>  <SCORE.INTER.CONST>
1

>  <SCORE.INTER.POLAR>
-1.32015

>  <SCORE.INTER.REPUL>
0

>  <SCORE.INTER.ROT>
5

>  <SCORE.INTER.VDW>
-17.1267

>  <SCORE.INTER.norm>
-0.431353

>  <SCORE.INTRA>
-1.96749

>  <SCORE.INTRA.DIHEDRAL>
-5.51938

>  <SCORE.INTRA.DIHEDRAL.0>
18.1022

>  <SCORE.INTRA.POLAR>
0

>  <SCORE.INTRA.POLAR.0>
0

>  <SCORE.INTRA.REPUL>
0

>  <SCORE.INTRA.REPUL.0>
0

>  <SCORE.INTRA.VDW>
0.792202

>  <SCORE.INTRA.VDW.0>
-2.81782

>  <SCORE.INTRA.norm>
-0.0756726

>  <SCORE.RESTR>
0.706695

>  <SCORE.RESTR.CAVITY>
0.706695

>  <SCORE.RESTR.norm>
0.0271806

>  <SCORE.SYSTEM>
-0.937915

>  <SCORE.SYSTEM.CONST>
0

>  <SCORE.SYSTEM.DIHEDRAL>
2.6339

>  <SCORE.SYSTEM.POLAR>
-0.347631

>  <SCORE.SYSTEM.VDW>
-1.07292

>  <SCORE.SYSTEM.norm>
-0.0360737

>  <SCORE.heavy>
26

>  <SCORE.norm>
-0.515919

$$$$
S58.pdb
  rDOCK(R)          3D
libRbt.so/2013.1/901 2013/11/27
 28 30  0  0  0  0  0  0  0  0999 V2000
   22.5322   29.8434   25.4247 C   0  0  0  0  0  0
   23.3429   29.4728   26.4541 C   0  0  0  0  0  0
   21.4513   28.8174   25.3594 C   0  0  0  0  0  0
   20.3462   28.6862   24.3544 C   0  0  0  0  0  0
   23.1232   27.7853   28.2539 C   0  0  0  0  0  0
   23.6039   28.6515   29.2440 C   0  0  0  0  0  0
   23.8502   28.1624   30.5182 C   0  0  0  0  0  0
   23.6095   26.7982   30.8012 C   0  0  0  0  0  0
   23.1262   25.9323   29.8059 C   0  0  0  0  0  0
   22.8845   26.4305   28.5234 C   0  0  0  0  0  0
   24.5967   30.1869   26.8451 C   0  0  0  0  0  0
   24.6151   31.6047   26.8694 C   0  0  0  0  0  0
   25.7346   32.2892   27.3778 C   0  0  0  0  0  0
   26.8250   31.5720   27.8627 C   0  0  0  0  0  0
   26.8262   30.1736   27.8136 C   0  0  0  0  0  0
   25.7067   29.4745   27.3039 C   0  0  0  0  0  0
   22.8381   28.3279   27.0276 N   0  0  0  0  0  0
   21.6505   27.9593   26.3224 N   0  0  0  0  0  0
   25.1025   27.1920   33.2432 N   0  0  0  0  0  0
   24.3765   24.7995   32.3768 O   0  0  0  0  0  0
   22.6770   26.1853   33.2008 O   0  0  0  0  0  0
   28.1913   32.4699   28.7199 Br  0  0  0  0  0  0
   19.1815   29.1050   24.9097 F   0  0  0  0  0  0
   20.2646   27.4162   23.9277 F   0  0  0  0  0  0
   20.6378   29.4780   23.3164 F   0  0  0  0  0  0
   23.9169   26.1486   32.4773 S   0  0  0  0  0  0
   25.2789   27.1043   34.2006 H   0  0  0  0  0  0
   25.5886   27.8593   32.7126 H   0  0  0  0  0  0
  1  3  1  0  0  0
  2  1  2  0  0  0
  2 17  1  0  0  0
  3 18  2  0  0  0
  3  4  1  0  0  0
  4 23  1  0  0  0
  4 25  1  0  0  0
  5 17  1  0  0  0
  5  6  2  0  0  0
  7  6  1  0  0  0
  8  7  2  0  0  0
  9 10  2  0  0  0
  9  8  1  0  0  0
 10  5  1  0  0  0
 11  2  1  0  0  0
 12 11  1  0  0  0
 13 12  2  0  0  0
 14 15  2  0  0  0
 14 13  1  0  0  0
 15 16  1  0  0  0
 16 11  2  0  0  0
 17 18  1  0  0  0
 19 28  1  0  0  0
 20 26  2  0  0  0
 22 14  1  0  0  0
 24  4  1  0  0  0
 26  8  1  0  0  0
 26 19  1  0  0  0
 26 21  2  0  0  0
 27 19  1  0  0  0
M  END
>  <CHROM.0>
52.51410642,63.24515843,40.14590017

>  <CHROM.1>
-104.54333654,24.06479843,42.20387990,-24.33617835,168.99183197,24.09150610
29.05910707,28.25802629,-2.77663429,0.63168947,2.18622392

>  <FORMUL>
      S58    C16 H11 Br1 F3 N3 O2 S1

>  <HET>
 S58  A 701      28

>  <HETNAM>
     S58 1-PHENYLSULFONAMIDE-3-TRIFLUOROMETHYL-5-PARABROMOPHENYL
   2 S58 PYRAZOLE

>  <Name>
S58.pdb

>  <RI>
0

>  <Rbt.Current_Directory>
/home/malgorzata/Desktop/rDOCK_IFD/Wyniki/3a_COX2/IFD

>  <Rbt.Executable>
rbdock ($Id: //depot/dev/client3/rdock/2013.1/src/exe/rbdock.cxx#4 $)

>  <Rbt.Library>
libRbt.so (2013.1, Build901 2013/11/27)

>  <Rbt.Parameter_File>
/home/malgorzata/Desktop/rDock_2013.1_src/data/scripts/hard_docking.prm

>  <Rbt.Receptor>
cavity.prm

>  <SCORE>
-15.5987

>  <SCORE.INTER>
-9.74153

>  <SCORE.INTER.CONST>
1

>  <SCORE.INTER.POLAR>
-0.848528

>  <SCORE.INTER.REPUL>
0

>  <SCORE.INTER.ROT>
5

>  <SCORE.INTER.VDW>
-17.2565

>  <SCORE.INTER.norm>
-0.374674

>  <SCORE.INTRA>
-2.636

>  <SCORE.INTRA.DIHEDRAL>
-6.39153

>  <SCORE.INTRA.DIHEDRAL.0>
18.1022

>  <SCORE.INTRA.POLAR>
0

>  <SCORE.INTRA.POLAR.0>
0

>  <SCORE.INTRA.REPUL>
0

>  <SCORE.INTRA.REPUL.0>
0

>  <SCORE.INTRA.VDW>
0.559759

>  <SCORE.INTRA.VDW.0>
-2.81782

>  <SCORE.INTRA.norm>
-0.101385

>  <SCORE.RESTR>
0.459887

>  <SCORE.RESTR.CAVITY>
0.459887

>  <SCORE.RESTR.norm>
0.0176879

>  <SCORE.SYSTEM>
-3.68109

>  <SCORE.SYSTEM.CONST>
0

>  <SCORE.SYSTEM.DIHEDRAL>
0.829764

>  <SCORE.SYSTEM.POLAR>
-0.955123

>  <SCORE.SYSTEM.REPUL>
0.0111605

>  <SCORE.SYSTEM.VDW>
-0.904356

>  <SCORE.SYSTEM.norm>
-0.14158

>  <SCORE.heavy>
26

>  <SCORE.norm>
-0.599951

$$$$
S58.pdb
  rDOCK(R)          3D
libRbt.so/2013.1/901 2013/11/27
 28 30  0  0  0  0  0  0  0  0999 V2000
   28.2648   32.4212   29.2253 C   0  0  0  0  0  0
   27.1452   31.6546   29.3389 C   0  0  0  0  0  0
   28.9620   32.3329   30.5412 C   0  0  0  0  0  0
   30.1932   33.0570   30.9975 C   0  0  0  0  0  0
   26.3744   30.0329   31.0452 C   0  0  0  0  0  0
   26.5325   29.6599   32.3860 C   0  0  0  0  0  0
   25.7625   28.6287   32.9031 C   0  0  0  0  0  0
   24.8268   27.9712   32.0716 C   0  0  0  0  0  0
   24.6700   28.3488   30.7274 C   0  0  0  0  0  0
   25.4520   29.3852   30.2118 C   0  0  0  0  0  0
   26.1114   31.5003   28.2701 C   0  0  0  0  0  0
   26.5005   31.0587   26.9798 C   0  0  0  0  0  0
   25.5254   30.7642   26.0088 C   0  0  0  0  0  0
   24.1748   30.9021   26.3179 C   0  0  0  0  0  0
   23.7849   31.3664   27.5789 C   0  0  0  0  0  0
   24.7562   31.6665   28.5629 C   0  0  0  0  0  0
   27.1142   31.0965   30.5968 N   0  0  0  0  0  0
   28.2724   31.5353   31.3106 N   0  0  0  0  0  0
   22.1263   26.9849   32.3583 N   0  0  0  0  0  0
   24.0155   26.5341   34.1555 O   0  0  0  0  0  0
   24.2057   25.3990   32.1150 O   0  0  0  0  0  0
   22.9053   30.3117   25.1148 Br  0  0  0  0  0  0
   31.1718   32.9086   30.0700 F   0  0  0  0  0  0
   30.5744   32.5979   32.1998 F   0  0  0  0  0  0
   29.8917   34.3562   31.1015 F   0  0  0  0  0  0
   23.7997   26.6235   32.7459 S   0  0  0  0  0  0
   21.8738   27.1790   31.4343 H   0  0  0  0  0  0
   21.4459   26.9898   33.0656 H   0  0  0  0  0  0
  1  3  1  0  0  0
  2  1  2  0  0  0
  2 17  1  0  0  0
  3 18  2  0  0  0
  3  4  1  0  0  0
  4 23  1  0  0  0
  4 25  1  0  0  0
  5 17  1  0  0  0
  5  6  2  0  0  0
  7  6  1  0  0  0
  8  7  2  0  0  0
  9 10  2  0  0  0
  9  8  1  0  0  0
 10  5  1  0  0  0
 11  2  1  0  0  0
 12 11  1  0  0  0
 13 12  2  0  0  0
 14 15  2  0  0  0
 14 13  1  0  0  0
 15 16  1  0  0  0
 16 11  2  0  0  0
 17 18  1  0  0  0
 19 28  1  0  0  0
 20 26  2  0  0  0
 22 14  1  0  0  0
 24  4  1  0  0  0
 26  8  1  0  0  0
 26 19  1  0  0  0
 26 21  2  0  0  0
 27 19  1  0  0  0
M  END
>  <CHROM.0>
51.97571665,62.13687998,158.16064900

>  <CHROM.1>
-50.80435223,179.86268457,55.52749190,128.46615875,52.72973231,25.77352645
30.21548951,29.63878413,-0.19388465,-0.62919787,-1.05359480

>  <FORMUL>
      S58    C16 H11 Br1 F3 N3 O2 S1

>  <HET>
 S58  A 701      28

>  <HETNAM>
     S58 1-PHENYLSULFONAMIDE-3-TRIFLUOROMETHYL-5-PARABROMOPHENYL
   2 S58 PYRAZOLE

>  <Name>
S58.pdb

>  <RI>
0

>  <Rbt.Current_Directory>
/home/malgorzata/Desktop/rDOCK_IFD/Wyniki/3a_COX2/IFD

>  <Rbt.Executable>
rbdock ($Id: //depot/dev/client3/rdock/2013.1/src/exe/rbdock.cxx#4 $)

>  <Rbt.Library>
libRbt.so (2013.1, Build901 2013/11/27)

>  <Rbt.Parameter_File>
/home/malgorzata/Desktop/rDock_2013.1_src/data/scripts/hard_docking.prm

>  <Rbt.Receptor>
cavity.prm

>  <SCORE>
-11.1065

>  <SCORE.INTER>
-4.80978

>  <SCORE.INTER.CONST>
1

>  <SCORE.INTER.POLAR>
-0.848528

>  <SCORE.INTER.REPUL>
0

>  <SCORE.INTER.ROT>
5

>  <SCORE.INTER.VDW>
-12.3248

>  <SCORE.INTER.norm>
-0.184991

>  <SCORE.INTRA>
-2.32307

>  <SCORE.INTRA.DIHEDRAL>
-6.51634

>  <SCORE.INTRA.DIHEDRAL.0>
18.1022

>  <SCORE.INTRA.POLAR>
0

>  <SCORE.INTRA.POLAR.0>
0

>  <SCORE.INTRA.REPUL>
0

>  <SCORE.INTRA.REPUL.0>
0

>  <SCORE.INTRA.VDW>
0.9351

>  <SCORE.INTRA.VDW.0>
-2.81782

>  <SCORE.INTRA.norm>
-0.0893488

>  <SCORE.RESTR>
0.067279

>  <SCORE.RESTR.CAVITY>
0.067279

>  <SCORE.RESTR.norm>
0.00258765

>  <SCORE.SYSTEM>
-4.04098

>  <SCORE.SYSTEM.CONST>
0

>  <SCORE.SYSTEM.DIHEDRAL>
0.799232

>  <SCORE.SYSTEM.POLAR>
-0.959166

>  <SCORE.SYSTEM.VDW>
-1.17943

>  <SCORE.SYSTEM.norm>
-0.155422

>  <SCORE.heavy>
26

>  <SCORE.norm>
-0.427175

$$$$
S58.pdb
  rDOCK(R)          3D
libRbt.so/2013.1/901 2013/11/27
 28 30  0  0  0  0  0  0  0  0999 V2000
   23.6464   30.8334   29.0763 C   0  0  0  0  0  0
   24.6154   30.1352   29.7305 C   0  0  0  0  0  0
   24.3195   32.0323   28.4976 C   0  0  0  0  0  0
   23.7055   33.1845   27.7601 C   0  0  0  0  0  0
   27.0849   30.3189   29.7845 C   0  0  0  0  0  0
   27.3241   28.9731   29.4791 C   0  0  0  0  0  0
   28.6062   28.4607   29.6100 C   0  0  0  0  0  0
   29.6541   29.3040   30.0459 C   0  0  0  0  0  0
   29.4109   30.6539   30.3502 C   0  0  0  0  0  0
   28.1162   31.1624   30.2205 C   0  0  0  0  0  0
   24.3767   28.8843   30.5134 C   0  0  0  0  0  0
   25.1699   28.6136   31.6574 C   0  0  0  0  0  0
   24.8615   27.5218   32.4900 C   0  0  0  0  0  0
   23.7714   26.7084   32.1922 C   0  0  0  0  0  0
   23.0030   26.9517   31.0485 C   0  0  0  0  0  0
   23.3040   28.0458   30.2034 C   0  0  0  0  0  0
   25.8149   30.7939   29.5821 N   0  0  0  0  0  0
   25.5884   31.9661   28.7959 N   0  0  0  0  0  0
   31.2176   26.9187   30.5077 N   0  0  0  0  0  0
   32.0121   29.3240   31.2729 O   0  0  0  0  0  0
   32.0363   28.8856   28.9718 O   0  0  0  0  0  0
   23.2492   25.4149   33.4013 Br  0  0  0  0  0  0
   22.9037   32.7109   26.7737 F   0  0  0  0  0  0
   24.6694   33.9834   27.2762 F   0  0  0  0  0  0
   22.9585   33.8769   28.6272 F   0  0  0  0  0  0
   31.3462   28.6433   30.2076 S   0  0  0  0  0  0
   31.9983   26.3448   30.3794 H   0  0  0  0  0  0
   30.3664   26.5317   30.8058 H   0  0  0  0  0  0
  1  3  1  0  0  0
  2  1  2  0  0  0
  2 17  1  0  0  0
  3 18  2  0  0  0
  3  4  1  0  0  0
  4 23  1  0  0  0
  4 25  1  0  0  0
  5 17  1  0  0  0
  5  6  2  0  0  0
  7  6  1  0  0  0
  8  7  2  0  0  0
  9 10  2  0  0  0
  9  8  1  0  0  0
 10  5  1  0  0  0
 11  2  1  0  0  0
 12 11  1  0  0  0
 13 12  2  0  0  0
 14 15  2  0  0  0
 14 13  1  0  0  0
 15 16  1  0  0  0
 16 11  2  0  0  0
 17 18  1  0  0  0
 19 28  1  0  0  0
 20 26  2  0  0  0
 22 14  1  0  0  0
 24  4  1  0  0  0
 26  8  1  0  0  0
 26 19  1  0  0  0
 26 21  2  0  0  0
 27 19  1  0  0  0
M  END
>  <CHROM.0>
-102.45816473,-85.61842973,46.68454988

>  <CHROM.1>
-50.23147211,34.00875415,-147.41922996,-26.54219405,163.11725919,26.03737520
29.20022459,30.36959632,2.40001864,-0.06526563,2.53674075

>  <FORMUL>
      S58    C16 H11 Br1 F3 N3 O2 S1

>  <HET>
 S58  A 701      28

>  <HETNAM>
     S58 1-PHENYLSULFONAMIDE-3-TRIFLUOROMETHYL-5-PARABROMOPHENYL
   2 S58 PYRAZOLE

>  <Name>
S58.pdb

>  <RI>
0

>  <Rbt.Current_Directory>
/home/malgorzata/Desktop/rDOCK_IFD/Wyniki/3a_COX2/IFD

>  <Rbt.Executable>
rbdock ($Id: //depot/dev/client3/rdock/2013.1/src/exe/rbdock.cxx#4 $)

>  <Rbt.Library>
libRbt.so (2013.1, Build901 2013/11/27)

>  <Rbt.Parameter_File>
/home/malgorzata/Desktop/rDock_2013.1_src/data/scripts/hard_docking.prm

>  <Rbt.Receptor>
cavity.prm

>  <SCORE>
-8.14623

>  <SCORE.INTER>
-5.47239

>  <SCORE.INTER.CONST>
1

>  <SCORE.INTER.POLAR>
-1.20988

>  <SCORE.INTER.REPUL>
0

>  <SCORE.INTER.ROT>
5

>  <SCORE.INTER.VDW>
-11.7588

>  <SCORE.INTER.norm>
-0.210477

>  <SCORE.INTRA>
-2.86337

>  <SCORE.INTRA.DIHEDRAL>
-6.22394

>  <SCORE.INTRA.DIHEDRAL.0>
18.1022

>  <SCORE.INTRA.POLAR>
0

>  <SCORE.INTRA.POLAR.0>
0

>  <SCORE.INTRA.REPUL>
0

>  <SCORE.INTRA.REPUL.0>
0

>  <SCORE.INTRA.VDW>
0.248603

>  <SCORE.INTRA.VDW.0>
-2.81782

>  <SCORE.INTRA.norm>
-0.11013

>  <SCORE.RESTR>
0.000349713

>  <SCORE.RESTR.CAVITY>
0.000349713

>  <SCORE.RESTR.norm>
1.34505e-05

>  <SCORE.SYSTEM>
0.189182

>  <SCORE.SYSTEM.CONST>
0

>  <SCORE.SYSTEM.DIHEDRAL>
3.55306

>  <SCORE.SYSTEM.POLAR>
-0.508665

>  <SCORE.SYSTEM.REPUL>
0.284242

>  <SCORE.SYSTEM.VDW>
-1.2791

>  <SCORE.SYSTEM.norm>
0.00727625

>  <SCORE.heavy>
26

>  <SCORE.norm>
-0.313316

$$$$
S58.pdb
  rDOCK(R)          3D
libRbt.so/2013.1/901 2013/11/27
 28 30  0  0  0  0  0  0  0  0999 V2000
   23.6752   30.1660   28.5343 C   0  0  0  0  0  0
   24.0588   31.3569   29.0719 C   0  0  0  0  0  0
   23.7952   30.3218   27.0556 C   0  0  0  0  0  0
   23.4119   29.3511   25.9789 C   0  0  0  0  0  0
   25.1512   33.3659   28.1204 C   0  0  0  0  0  0
   24.7665   34.4209   27.2833 C   0  0  0  0  0  0
   25.4393   35.6314   27.3573 C   0  0  0  0  0  0
   26.5009   35.7852   28.2785 C   0  0  0  0  0  0
   26.8834   34.7252   29.1176 C   0  0  0  0  0  0
   26.2045   33.5071   29.0346 C   0  0  0  0  0  0
   24.0383   31.6732   30.5329 C   0  0  0  0  0  0
   24.1755   30.6241   31.4772 C   0  0  0  0  0  0
   24.3095   30.9181   32.8469 C   0  0  0  0  0  0
   24.3124   32.2430   33.2750 C   0  0  0  0  0  0
   24.1470   33.2816   32.3521 C   0  0  0  0  0  0
   24.0105   32.9982   30.9727 C   0  0  0  0  0  0
   24.4178   32.2096   28.0529 N   0  0  0  0  0  0
   24.2504   31.5205   26.8117 N   0  0  0  0  0  0
   28.9878   37.0525   29.0248 N   0  0  0  0  0  0
   26.6428   38.2594   29.2396 O   0  0  0  0  0  0
   27.4683   37.9326   27.0718 O   0  0  0  0  0  0
   24.7018   32.6241   35.0388 Br  0  0  0  0  0  0
   23.3057   30.0091   24.7974 F   0  0  0  0  0  0
   22.2669   28.7325   26.3075 F   0  0  0  0  0  0
   24.3871   28.4410   25.8790 F   0  0  0  0  0  0
   27.3826   37.3774   28.3933 S   0  0  0  0  0  0
   29.7473   37.5841   28.7152 H   0  0  0  0  0  0
   29.1226   36.3418   29.6882 H   0  0  0  0  0  0
  1  3  1  0  0  0
  2  1  2  0  0  0
  2 17  1  0  0  0
  3 18  2  0  0  0
  3  4  1  0  0  0
  4 23  1  0  0  0
  4 25  1  0  0  0
  5 17  1  0  0  0
  5  6  2  0  0  0
  7  6  1  0  0  0
  8  7  2  0  0  0
  9 10  2  0  0  0
  9  8  1  0  0  0
 10  5  1  0  0  0
 11  2  1  0  0  0
 12 11  1  0  0  0
 13 12  2  0  0  0
 14 15  2  0  0  0
 14 13  1  0  0  0
 15 16  1  0  0  0
 16 11  2  0  0  0
 17 18  1  0  0  0
 19 28  1  0  0  0
 20 26  2  0  0  0
 22 14  1  0  0  0
 24  4  1  0  0  0
 26  8  1  0  0  0
 26 19  1  0  0  0
 26 21  2  0  0  0
 27 19  1  0  0  0
M  END
>  <CHROM.0>
-120.28368961,-158.91701482,-93.25537964

>  <CHROM.1>
161.89835635,-142.56923293,27.40145455,-155.19066176,145.29022860,25.01305846
32.97636177,29.66823812,2.11529461,-1.09515489,-1.63909635

>  <FORMUL>
      S58    C16 H11 Br1 F3 N3 O2 S1

>  <HET>
 S58  A 701      28

>  <HETNAM>
     S58 1-PHENYLSULFONAMIDE-3-TRIFLUOROMETHYL-5-PARABROMOPHENYL
   2 S58 PYRAZOLE

>  <Name>
S58.pdb

>  <RI>
0

>  <Rbt.Current_Directory>
/home/malgorzata/Desktop/rDOCK_IFD/Wyniki/3a_COX2/IFD

>  <Rbt.Executable>
rbdock ($Id: //depot/dev/client3/rdock/2013.1/src/exe/rbdock.cxx#4 $)

>  <Rbt.Library>
libRbt.so (2013.1, Build901 2013/11/27)

>  <Rbt.Parameter_File>
/home/malgorzata/Desktop/rDock_2013.1_src/data/scripts/hard_docking.prm

>  <Rbt.Receptor>
cavity.prm

>  <SCORE>
-13.5936

>  <SCORE.INTER>
-11.2979

>  <SCORE.INTER.CONST>
1

>  <SCORE.INTER.POLAR>
-2.45828

>  <SCORE.INTER.REPUL>
0

>  <SCORE.INTER.ROT>
5

>  <SCORE.INTER.VDW>
-13.3398

>  <SCORE.INTER.norm>
-0.434536

>  <SCORE.INTRA>
-2.85912

>  <SCORE.INTRA.DIHEDRAL>
-6.5005

>  <SCORE.INTRA.DIHEDRAL.0>
18.1022

>  <SCORE.INTRA.POLAR>
0

>  <SCORE.INTRA.POLAR.0>
0

>  <SCORE.INTRA.REPUL>
0

>  <SCORE.INTRA.REPUL.0>
0

>  <SCORE.INTRA.VDW>
0.391124

>  <SCORE.INTRA.VDW.0>
-2.81782

>  <SCORE.INTRA.norm>
-0.109966

>  <SCORE.RESTR>
1.42958

>  <SCORE.RESTR.CAVITY>
1.42958

>  <SCORE.RESTR.norm>
0.0549838

>  <SCORE.SYSTEM>
-0.866157

>  <SCORE.SYSTEM.CONST>
0

>  <SCORE.SYSTEM.DIHEDRAL>
2.77119

>  <SCORE.SYSTEM.POLAR>
-0.365724

>  <SCORE.SYSTEM.VDW>
-1.00829

>  <SCORE.SYSTEM.norm>
-0.0333137

>  <SCORE.heavy>
26

>  <SCORE.norm>
-0.522832

$$$$
S58.pdb
  rDOCK(R)          3D
libRbt.so/2013.1/901 2013/11/27
 28 30  0  0  0  0  0  0  0  0999 V2000
   22.8654   32.3789   26.6306 C   0  0  0  0  0  0
   24.0663   32.4962   27.2618 C   0  0  0  0  0  0
   22.6763   30.9227   26.3683 C   0  0  0  0  0  0
   21.5709   30.2438   25.6163 C   0  0  0  0  0  0
   25.6187   30.8438   28.2593 C   0  0  0  0  0  0
   25.3183   29.8528   29.2023 C   0  0  0  0  0  0
   26.3208   29.3742   30.0327 C   0  0  0  0  0  0
   27.6318   29.8901   29.9136 C   0  0  0  0  0  0
   27.9299   30.8834   28.9657 C   0  0  0  0  0  0
   26.9144   31.3642   28.1355 C   0  0  0  0  0  0
   24.6900   33.7944   27.6627 C   0  0  0  0  0  0
   25.6426   33.8173   28.7129 C   0  0  0  0  0  0
   26.3487   34.9998   29.0020 C   0  0  0  0  0  0
   26.1147   36.1487   28.2512 C   0  0  0  0  0  0
   25.1544   36.1414   27.2335 C   0  0  0  0  0  0
   24.4376   34.9588   26.9344 C   0  0  0  0  0  0
   24.6092   31.2414   27.4213 N   0  0  0  0  0  0
   23.7043   30.2870   26.8611 N   0  0  0  0  0  0
   30.3018   28.7871   29.9619 N   0  0  0  0  0  0
   28.4579   28.1572   31.7522 O   0  0  0  0  0  0
   29.3559   30.3173   31.8755 O   0  0  0  0  0  0
   27.1937   37.6264   28.4961 Br  0  0  0  0  0  0
   20.5509   31.1184   25.4297 F   0  0  0  0  0  0
   21.1708   29.1487   26.2814 F   0  0  0  0  0  0
   22.0495   29.8789   24.4216 F   0  0  0  0  0  0
   28.9600   29.2573   30.9913 S   0  0  0  0  0  0
   30.9858   28.1789   30.3047 H   0  0  0  0  0  0
   30.3644   29.1310   29.0448 H   0  0  0  0  0  0
  1  3  1  0  0  0
  2  1  2  0  0  0
  2 17  1  0  0  0
  3 18  2  0  0  0
  3  4  1  0  0  0
  4 23  1  0  0  0
  4 25  1  0  0  0
  5 17  1  0  0  0
  5  6  2  0  0  0
  7  6  1  0  0  0
  8  7  2  0  0  0
  9 10  2  0  0  0
  9  8  1  0  0  0
 10  5  1  0  0  0
 11  2  1  0  0  0
 12 11  1  0  0  0
 13 12  2  0  0  0
 14 15  2  0  0  0
 14 13  1  0  0  0
 15 16  1  0  0  0
 16 11  2  0  0  0
 17 18  1  0  0  0
 19 28  1  0  0  0
 20 26  2  0  0  0
 22 14  1  0  0  0
 24  4  1  0  0  0
 26  8  1  0  0  0
 26 19  1  0  0  0
 26 21  2  0  0  0
 27 19  1  0  0  0
M  END
>  <CHROM.0>
-86.93774369,-163.58994458,148.38497980

>  <CHROM.1>
-13.68746517,120.45980077,156.56590875,128.06867318,-161.02620082,25.72078180
32.34704302,28.26889365,2.09829063,0.60117013,3.00884000

>  <FORMUL>
      S58    C16 H11 Br1 F3 N3 O2 S1

>  <HET>
 S58  A 701      28

>  <HETNAM>
     S58 1-PHENYLSULFONAMIDE-3-TRIFLUOROMETHYL-5-PARABROMOPHENYL
   2 S58 PYRAZOLE

>  <Name>
S58.pdb

>  <RI>
0

>  <Rbt.Current_Directory>
/home/malgorzata/Desktop/rDOCK_IFD/Wyniki/3a_COX2/IFD

>  <Rbt.Executable>
rbdock ($Id: //depot/dev/client3/rdock/2013.1/src/exe/rbdock.cxx#4 $)

>  <Rbt.Library>
libRbt.so (2013.1, Build901 2013/11/27)

>  <Rbt.Parameter_File>
/home/malgorzata/Desktop/rDock_2013.1_src/data/scripts/hard_docking.prm

>  <Rbt.Receptor>
cavity.prm

>  <SCORE>
-11.3067

>  <SCORE.INTER>
-9.25076

>  <SCORE.INTER.CONST>
1

>  <SCORE.INTER.POLAR>
-1.27915

>  <SCORE.INTER.REPUL>
0

>  <SCORE.INTER.ROT>
5

>  <SCORE.INTER.VDW>
-15.3017

>  <SCORE.INTER.norm>
-0.355799

>  <SCORE.INTRA>
-1.14363

>  <SCORE.INTRA.DIHEDRAL>
-4.40208

>  <SCORE.INTRA.DIHEDRAL.0>
18.1022

>  <SCORE.INTRA.POLAR>
0

>  <SCORE.INTRA.POLAR.0>
0

>  <SCORE.INTRA.REPUL>
0

>  <SCORE.INTRA.REPUL.0>
0

>  <SCORE.INTRA.VDW>
1.05741

>  <SCORE.INTRA.VDW.0>
-2.81782

>  <SCORE.INTRA.norm>
-0.0439858

>  <SCORE.RESTR>
0.192144

>  <SCORE.RESTR.CAVITY>
0.192144

>  <SCORE.RESTR.norm>
0.00739014

>  <SCORE.SYSTEM>
-1.10446

>  <SCORE.SYSTEM.CONST>
0

>  <SCORE.SYSTEM.DIHEDRAL>
2.01036

>  <SCORE.SYSTEM.POLAR>
-0.26114

>  <SCORE.SYSTEM.VDW>
-1.22177

>  <SCORE.SYSTEM.norm>
-0.0424794

>  <SCORE.heavy>
26

>  <SCORE.norm>
-0.434874

$$$$
S58.pdb
  rDOCK(R)          3D
libRbt.so/2013.1/901 2013/11/27
 28 30  0  0  0  0  0  0  0  0999 V2000
   25.5020   28.9269   29.2075 C   0  0  0  0  0  0
   24.8002   28.0985   30.0294 C   0  0  0  0  0  0
   25.2450   28.4467   27.8187 C   0  0  0  0  0  0
   25.8432   28.9369   26.5341 C   0  0  0  0  0  0
   23.0755   26.3701   29.6133 C   0  0  0  0  0  0
   22.2129   26.8399   30.6118 C   0  0  0  0  0  0
   21.0998   26.0897   30.9609 C   0  0  0  0  0  0
   20.8492   24.8640   30.3021 C   0  0  0  0  0  0
   21.7159   24.3963   29.3001 C   0  0  0  0  0  0
   22.8377   25.1547   28.9566 C   0  0  0  0  0  0
   24.8139   28.1748   31.5224 C   0  0  0  0  0  0
   25.0860   29.4137   32.1565 C   0  0  0  0  0  0
   24.9552   29.5381   33.5522 C   0  0  0  0  0  0
   24.5525   28.4427   34.3115 C   0  0  0  0  0  0
   24.3119   27.2094   33.6960 C   0  0  0  0  0  0
   24.4410   27.0721   32.2937 C   0  0  0  0  0  0
   24.1280   27.1750   29.2614 N   0  0  0  0  0  0
   24.4229   27.4351   27.8870 N   0  0  0  0  0  0
   19.9014   22.2145   30.9578 N   0  0  0  0  0  0
   18.4053   24.0037   29.7077 O   0  0  0  0  0  0
   18.8512   24.3970   31.9736 O   0  0  0  0  0  0
   24.1784   28.6718   36.1046 Br  0  0  0  0  0  0
   26.2248   27.8746   25.7818 F   0  0  0  0  0  0
   26.8732   29.7577   26.7933 F   0  0  0  0  0  0
   24.8990   29.6159   25.8732 F   0  0  0  0  0  0
   19.3806   23.8771   30.7441 S   0  0  0  0  0  0
   19.3966   21.6204   31.5472 H   0  0  0  0  0  0
   20.6946   21.8813   30.4856 H   0  0  0  0  0  0
  1  3  1  0  0  0
  2  1  2  0  0  0
  2 17  1  0  0  0
  3 18  2  0  0  0
  3  4  1  0  0  0
  4 23  1  0  0  0
  4 25  1  0  0  0
  5 17  1  0  0  0
  5  6  2  0  0  0
  7  6  1  0  0  0
  8  7  2  0  0  0
  9 10  2  0  0  0
  9  8  1  0  0  0
 10  5  1  0  0  0
 11  2  1  0  0  0
 12 11  1  0  0  0
 13 12  2  0  0  0
 14 15  2  0  0  0
 14 13  1  0  0  0
 15 16  1  0  0  0
 16 11  2  0  0  0
 17 18  1  0  0  0
 19 28  1  0  0  0
 20 26  2  0  0  0
 22 14  1  0  0  0
 24  4  1  0  0  0
 26  8  1  0  0  0
 26 19  1  0  0  0
 26 21  2  0  0  0
 27 19  1  0  0  0
M  END
>  <CHROM.0>
52.98665264,164.55610272,-84.66599938

>  <CHROM.1>
134.10162830,28.49616761,26.76214946,-132.74924709,153.52050508,23.36075092
27.14997941,30.97691861,-1.19971509,0.72295362,1.43429367

>  <FORMUL>
      S58    C16 H11 Br1 F3 N3 O2 S1

>  <HET>
 S58  A 701      28

>  <HETNAM>
     S58 1-PHENYLSULFONAMIDE-3-TRIFLUOROMETHYL-5-PARABROMOPHENYL
   2 S58 PYRAZOLE

>  <Name>
S58.pdb

>  <RI>
0

>  <Rbt.Current_Directory>
/home/malgorzata/Desktop/rDOCK_IFD/Wyniki/3a_COX2/IFD

>  <Rbt.Executable>
rbdock ($Id: //depot/dev/client3/rdock/2013.1/src/exe/rbdock.cxx#4 $)

>  <Rbt.Library>
libRbt.so (2013.1, Build901 2013/11/27)

>  <Rbt.Parameter_File>
/home/malgorzata/Desktop/rDock_2013.1_src/data/scripts/hard_docking.prm

>  <Rbt.Receptor>
cavity.prm

>  <SCORE>
-16.9379

>  <SCORE.INTER>
-13.363

>  <SCORE.INTER.CONST>
1

>  <SCORE.INTER.POLAR>
-1.9823

>  <SCORE.INTER.REPUL>
0

>  <SCORE.INTER.ROT>
5

>  <SCORE.INTER.VDW>
-17.0232

>  <SCORE.INTER.norm>
-0.513963

>  <SCORE.INTRA>
-2.74616

>  <SCORE.INTRA.DIHEDRAL>
-8.47354

>  <SCORE.INTRA.DIHEDRAL.0>
18.1022

>  <SCORE.INTRA.POLAR>
0

>  <SCORE.INTRA.POLAR.0>
0

>  <SCORE.INTRA.REPUL>
0

>  <SCORE.INTRA.REPUL.0>
0

>  <SCORE.INTRA.VDW>
1.49061

>  <SCORE.INTRA.VDW.0>
-2.81782

>  <SCORE.INTRA.norm>
-0.105621

>  <SCORE.RESTR>
1.86453

>  <SCORE.RESTR.CAVITY>
1.86453

>  <SCORE.RESTR.norm>
0.0717127

>  <SCORE.SYSTEM>
-2.6932

>  <SCORE.SYSTEM.CONST>
0

>  <SCORE.SYSTEM.DIHEDRAL>
1.89179

>  <SCORE.SYSTEM.POLAR>
-0.948871

>  <SCORE.SYSTEM.VDW>
-0.412928

>  <SCORE.SYSTEM.norm>
-0.103584

>  <SCORE.heavy>
26

>  <SCORE.norm>
-0.651456

$$$$
S58.pdb
  rDOCK(R)          3D
libRbt.so/2013.1/901 2013/11/27
 28 30  0  0  0  0  0  0  0  0999 V2000
   24.7731   28.8180   26.5657 C   0  0  0  0  0  0
   23.5995   28.3303   27.0547 C   0  0  0  0  0  0
   25.8338   28.3729   27.5154 C   0  0  0  0  0  0
   27.2952   28.7088   27.5093 C   0  0  0  0  0  0
   23.0610   26.7030   28.8428 C   0  0  0  0  0  0
   22.9322   26.8256   30.2321 C   0  0  0  0  0  0
   22.0894   25.9640   30.9183 C   0  0  0  0  0  0
   21.3696   24.9770   30.2064 C   0  0  0  0  0  0
   21.5003   24.8576   28.8127 C   0  0  0  0  0  0
   22.3544   25.7257   28.1282 C   0  0  0  0  0  0
   22.2571   28.5855   26.4483 C   0  0  0  0  0  0
   21.0903   28.1416   27.1210 C   0  0  0  0  0  0
   19.8171   28.5035   26.6431 C   0  0  0  0  0  0
   19.7034   29.3038   25.5094 C   0  0  0  0  0  0
   20.8496   29.7200   24.8234 C   0  0  0  0  0  0
   22.1349   29.3617   25.2939 C   0  0  0  0  0  0
   23.8588   27.6153   28.2020 N   0  0  0  0  0  0
   25.2665   27.6565   28.4473 N   0  0  0  0  0  0
   19.2948   22.9898   29.9000 N   0  0  0  0  0  0
   19.4300   24.6112   31.9868 O   0  0  0  0  0  0
   21.0528   22.9273   31.8502 O   0  0  0  0  0  0
   18.0445   29.9470   25.0174 Br  0  0  0  0  0  0
   27.8615   28.2727   28.6621 F   0  0  0  0  0  0
   27.4598   30.0307   27.3440 F   0  0  0  0  0  0
   27.8609   28.0662   26.4814 F   0  0  0  0  0  0
   20.2482   23.8485   31.0978 S   0  0  0  0  0  0
   19.2895   23.2985   28.9726 H   0  0  0  0  0  0
   18.7709   22.2014   30.1590 H   0  0  0  0  0  0
  1  3  1  0  0  0
  2  1  2  0  0  0
  2 17  1  0  0  0
  3 18  2  0  0  0
  3  4  1  0  0  0
  4 23  1  0  0  0
  4 25  1  0  0  0
  5 17  1  0  0  0
  5  6  2  0  0  0
  7  6  1  0  0  0
  8  7  2  0  0  0
  9 10  2  0  0  0
  9  8  1  0  0  0
 10  5  1  0  0  0
 11  2  1  0  0  0
 12 11  1  0  0  0
 13 12  2  0  0  0
 14 15  2  0  0  0
 14 13  1  0  0  0
 15 16  1  0  0  0
 16 11  2  0  0  0
 17 18  1  0  0  0
 19 28  1  0  0  0
 20 26  2  0  0  0
 22 14  1  0  0  0
 24  4  1  0  0  0
 26  8  1  0  0  0
 26 19  1  0  0  0
 26 21  2  0  0  0
 27 19  1  0  0  0
M  END
>  <CHROM.0>
52.28654013,62.44337945,-127.68508987

>  <CHROM.1>
170.39772061,-133.46848875,-173.50744305,168.87527128,-13.02203629,22.06589202
27.49748394,27.81277862,-0.23555631,-0.11464412,-0.77664066

>  <FORMUL>
      S58    C16 H11 Br1 F3 N3 O2 S1

>  <HET>
 S58  A 701      28

>  <HETNAM>
     S58 1-PHENYLSULFONAMIDE-3-TRIFLUOROMETHYL-5-PARABROMOPHENYL
   2 S58 PYRAZOLE

>  <Name>
S58.pdb

>  <RI>
0

>  <Rbt.Current_Directory>
/home/malgorzata/Desktop/rDOCK_IFD/Wyniki/3a_COX2/IFD

>  <Rbt.Executable>
rbdock ($Id: //depot/dev/client3/rdock/2013.1/src/exe/rbdock.cxx#4 $)

>  <Rbt.Library>
libRbt.so (2013.1, Build901 2013/11/27)

>  <Rbt.Parameter_File>
/home/malgorzata/Desktop/rDock_2013.1_src/data/scripts/hard_docking.prm

>  <Rbt.Receptor>
cavity.prm

>  <SCORE>
-15.9876

>  <SCORE.INTER>
-10.5524

>  <SCORE.INTER.CONST>
1

>  <SCORE.INTER.POLAR>
-0.386127

>  <SCORE.INTER.REPUL>
0

>  <SCORE.INTER.ROT>
5

>  <SCORE.INTER.VDW>
-19.6396

>  <SCORE.INTER.norm>
-0.405861

>  <SCORE.INTRA>
-2.53748

>  <SCORE.INTRA.DIHEDRAL>
-6.52991

>  <SCORE.INTRA.DIHEDRAL.0>
18.1022

>  <SCORE.INTRA.POLAR>
0

>  <SCORE.INTRA.POLAR.0>
0

>  <SCORE.INTRA.REPUL>
0

>  <SCORE.INTRA.REPUL.0>
0

>  <SCORE.INTRA.VDW>
0.727469

>  <SCORE.INTRA.VDW.0>
-2.81782

>  <SCORE.INTRA.norm>
-0.0975955

>  <SCORE.RESTR>
1.00865

>  <SCORE.RESTR.CAVITY>
1.00865

>  <SCORE.RESTR.norm>
0.0387941

>  <SCORE.SYSTEM>
-3.90634

>  <SCORE.SYSTEM.CONST>
0

>  <SCORE.SYSTEM.DIHEDRAL>
0.821235

>  <SCORE.SYSTEM.POLAR>
-0.958098

>  <SCORE.SYSTEM.VDW>
-1.05943

>  <SCORE.SYSTEM.norm>
-0.150244

>  <SCORE.heavy>
26

>  <SCORE.norm>
-0.614906

$$$$
