S58.pdb
  rDOCK(R)          3D
libRbt.so/2013.1/901 2013/11/27
 28 30  0  0  0  0  0  0  0  0999 V2000
   22.0694   29.3687   28.7428 C   0  0  0  0  0  0
   22.9557   28.3801   29.0452 C   0  0  0  0  0  0
   22.8715   30.6206   28.6219 C   0  0  0  0  0  0
   22.3888   32.0221   28.3951 C   0  0  0  0  0  0
   25.4304   28.2739   29.0511 C   0  0  0  0  0  0
   25.8215   27.5576   30.1893 C   0  0  0  0  0  0
   27.0080   26.8395   30.1698 C   0  0  0  0  0  0
   27.8038   26.8373   29.0012 C   0  0  0  0  0  0
   27.4078   27.5560   27.8607 C   0  0  0  0  0  0
   26.2139   28.2809   27.8887 C   0  0  0  0  0  0
   22.5801   26.9587   29.3162 C   0  0  0  0  0  0
   23.2298   26.2507   30.3592 C   0  0  0  0  0  0
   22.7861   24.9666   30.7261 C   0  0  0  0  0  0
   21.7029   24.3922   30.0663 C   0  0  0  0  0  0
   21.0767   25.0724   29.0161 C   0  0  0  0  0  0
   21.5146   26.3636   28.6378 C   0  0  0  0  0  0
   24.2214   28.9186   29.0981 N   0  0  0  0  0  0
   24.1259   30.3167   28.8159 N   0  0  0  0  0  0
   30.6492   26.9913   28.5242 N   0  0  0  0  0  0
   29.2266   24.8179   28.0196 O   0  0  0  0  0  0
   29.5831   25.3478   30.2735 O   0  0  0  0  0  0
   20.9968   22.8065   30.6945 Br  0  0  0  0  0  0
   22.8291   32.8176   29.4018 F   0  0  0  0  0  0
   21.0500   32.0350   28.3011 F   0  0  0  0  0  0
   22.9119   32.4561   27.2429 F   0  0  0  0  0  0
   29.3584   25.8848   28.9608 S   0  0  0  0  0  0
   31.5681   26.7944   28.7928 H   0  0  0  0  0  0
   30.4503   27.8034   28.0102 H   0  0  0  0  0  0
  1  3  1  0  0  0
  2  1  2  0  0  0
  2 17  1  0  0  0
  3 18  2  0  0  0
  3  4  1  0  0  0
  4 23  1  0  0  0
  4 25  1  0  0  0
  5 17  1  0  0  0
  5  6  2  0  0  0
  7  6  1  0  0  0
  8  7  2  0  0  0
  9 10  2  0  0  0
  9  8  1  0  0  0
 10  5  1  0  0  0
 11  2  1  0  0  0
 12 11  1  0  0  0
 13 12  2  0  0  0
 14 15  2  0  0  0
 14 13  1  0  0  0
 15 16  1  0  0  0
 16 11  2  0  0  0
 17 18  1  0  0  0
 19 28  1  0  0  0
 20 26  2  0  0  0
 22 14  1  0  0  0
 24  4  1  0  0  0
 26  8  1  0  0  0
 26 19  1  0  0  0
 26 21  2  0  0  0
 27 19  1  0  0  0
M  END
>  <CHROM.0>
111.11805713,-69.64001805,71.23708274,-178.52751196

>  <CHROM.1>
122.82841358,-73.30865994,-139.43371071,-124.45799046,155.05107932,24.23620051
27.09790584,29.29226795,2.41073075,-0.09979839,2.91061883

>  <FORMUL>
      S58    C16 H11 Br1 F3 N3 O2 S1

>  <HET>
 S58  A 701      28

>  <HETNAM>
     S58 1-PHENYLSULFONAMIDE-3-TRIFLUOROMETHYL-5-PARABROMOPHENYL
   2 S58 PYRAZOLE

>  <Name>
S58.pdb

>  <RI>
0

>  <Rbt.Current_Directory>
/home/malgorzata/Desktop/rDOCK_IFD/Wyniki/3a_COX2/IFD

>  <Rbt.Executable>
rbdock ($Id: //depot/dev/client3/rdock/2013.1/src/exe/rbdock.cxx#4 $)

>  <Rbt.Library>
libRbt.so (2013.1, Build901 2013/11/27)

>  <Rbt.Parameter_File>
/home/malgorzata/Desktop/rDock_2013.1_src/data/scripts/hard_docking.prm

>  <Rbt.Receptor>
cavity.prm

>  <SCORE>
-11.0211

>  <SCORE.INTER>
-8.70378

>  <SCORE.INTER.CONST>
1

>  <SCORE.INTER.POLAR>
-0.790569

>  <SCORE.INTER.REPUL>
0

>  <SCORE.INTER.ROT>
5

>  <SCORE.INTER.VDW>
-16.4158

>  <SCORE.INTER.norm>
-0.334761

>  <SCORE.INTRA>
0.215956

>  <SCORE.INTRA.DIHEDRAL>
-0.133853

>  <SCORE.INTRA.DIHEDRAL.0>
18.1022

>  <SCORE.INTRA.POLAR>
0

>  <SCORE.INTRA.POLAR.0>
0

>  <SCORE.INTRA.REPUL>
0

>  <SCORE.INTRA.REPUL.0>
0

>  <SCORE.INTRA.VDW>
0.282883

>  <SCORE.INTRA.VDW.0>
-2.81782

>  <SCORE.INTRA.norm>
0.00830602

>  <SCORE.RESTR>
0

>  <SCORE.RESTR.CAVITY>
0

>  <SCORE.RESTR.norm>
0

>  <SCORE.SYSTEM>
-2.5333

>  <SCORE.SYSTEM.CONST>
0

>  <SCORE.SYSTEM.DIHEDRAL>
1.25453

>  <SCORE.SYSTEM.POLAR>
-0.506418

>  <SCORE.SYSTEM.VDW>
-1.43874

>  <SCORE.SYSTEM.norm>
-0.0974347

>  <SCORE.heavy>
26

>  <SCORE.norm>
-0.423889

$$$$
S58.pdb
  rDOCK(R)          3D
libRbt.so/2013.1/901 2013/11/27
 28 30  0  0  0  0  0  0  0  0999 V2000
   25.2980   35.1952   27.8199 C   0  0  0  0  0  0
   26.2473   34.4121   28.4029 C   0  0  0  0  0  0
   24.4964   34.2913   26.9449 C   0  0  0  0  0  0
   23.3857   34.6460   26.0020 C   0  0  0  0  0  0
   26.5754   31.9598   28.5200 C   0  0  0  0  0  0
   26.0341   30.7502   28.0667 C   0  0  0  0  0  0
   26.5447   29.5523   28.5442 C   0  0  0  0  0  0
   27.6060   29.5684   29.4783 C   0  0  0  0  0  0
   28.1474   30.7836   29.9299 C   0  0  0  0  0  0
   27.6254   31.9866   29.4483 C   0  0  0  0  0  0
   27.3156   34.9156   29.3195 C   0  0  0  0  0  0
   26.9523   35.6007   30.5068 C   0  0  0  0  0  0
   27.9350   35.9477   31.4525 C   0  0  0  0  0  0
   29.2669   35.6127   31.2237 C   0  0  0  0  0  0
   29.6365   34.9638   30.0405 C   0  0  0  0  0  0
   28.6575   34.6108   29.0819 C   0  0  0  0  0  0
   26.0785   33.1151   27.9742 N   0  0  0  0  0  0
   24.9675   33.0811   27.0753 N   0  0  0  0  0  0
   27.0491   26.7711   29.9398 N   0  0  0  0  0  0
   28.6990   28.1743   31.4601 O   0  0  0  0  0  0
   29.4338   27.6633   29.2952 O   0  0  0  0  0  0
   30.5108   35.8799   32.5612 Br  0  0  0  0  0  0
   23.0577   33.5563   25.2637 F   0  0  0  0  0  0
   23.7556   35.6779   25.2274 F   0  0  0  0  0  0
   22.3249   35.0065   26.7327 F   0  0  0  0  0  0
   28.2936   27.9984   30.1013 S   0  0  0  0  0  0
   26.2123   26.9865   29.4830 H   0  0  0  0  0  0
   27.1931   25.8713   30.3042 H   0  0  0  0  0  0
  1  3  1  0  0  0
  2  1  2  0  0  0
  2 17  1  0  0  0
  3 18  2  0  0  0
  3  4  1  0  0  0
  4 23  1  0  0  0
  4 25  1  0  0  0
  5 17  1  0  0  0
  5  6  2  0  0  0
  7  6  1  0  0  0
  8  7  2  0  0  0
  9 10  2  0  0  0
  9  8  1  0  0  0
 10  5  1  0  0  0
 11  2  1  0  0  0
 12 11  1  0  0  0
 13 12  2  0  0  0
 14 15  2  0  0  0
 14 13  1  0  0  0
 15 16  1  0  0  0
 16 11  2  0  0  0
 17 18  1  0  0  0
 19 28  1  0  0  0
 20 26  2  0  0  0
 22 14  1  0  0  0
 24  4  1  0  0  0
 26  8  1  0  0  0
 26 19  1  0  0  0
 26 21  2  0  0  0
 27 19  1  0  0  0
M  END
>  <CHROM.0>
-109.46362160,-70.09363912,-51.63801231,-178.84064807

>  <CHROM.1>
171.40203577,166.84378487,58.21875133,-24.38382875,6.27756562,27.27348266
32.98438995,29.37014838,3.07245337,0.73496595,-3.08708391

>  <FORMUL>
      S58    C16 H11 Br1 F3 N3 O2 S1

>  <HET>
 S58  A 701      28

>  <HETNAM>
     S58 1-PHENYLSULFONAMIDE-3-TRIFLUOROMETHYL-5-PARABROMOPHENYL
   2 S58 PYRAZOLE

>  <Name>
S58.pdb

>  <RI>
0

>  <Rbt.Current_Directory>
/home/malgorzata/Desktop/rDOCK_IFD/Wyniki/3a_COX2/IFD

>  <Rbt.Executable>
rbdock ($Id: //depot/dev/client3/rdock/2013.1/src/exe/rbdock.cxx#4 $)

>  <Rbt.Library>
libRbt.so (2013.1, Build901 2013/11/27)

>  <Rbt.Parameter_File>
/home/malgorzata/Desktop/rDock_2013.1_src/data/scripts/hard_docking.prm

>  <Rbt.Receptor>
cavity.prm

>  <SCORE>
-9.10732

>  <SCORE.INTER>
-6.15735

>  <SCORE.INTER.CONST>
1

>  <SCORE.INTER.POLAR>
-1.48958

>  <SCORE.INTER.REPUL>
0

>  <SCORE.INTER.ROT>
5

>  <SCORE.INTER.VDW>
-11.4928

>  <SCORE.INTER.norm>
-0.236821

>  <SCORE.INTRA>
-1.81245

>  <SCORE.INTRA.DIHEDRAL>
-6.14961

>  <SCORE.INTRA.DIHEDRAL.0>
18.1022

>  <SCORE.INTRA.POLAR>
0

>  <SCORE.INTRA.POLAR.0>
0

>  <SCORE.INTRA.REPUL>
0

>  <SCORE.INTRA.REPUL.0>
0

>  <SCORE.INTRA.VDW>
1.26236

>  <SCORE.INTRA.VDW.0>
-2.81782

>  <SCORE.INTRA.norm>
-0.0697096

>  <SCORE.RESTR>
0.853927

>  <SCORE.RESTR.CAVITY>
0.853927

>  <SCORE.RESTR.norm>
0.0328433

>  <SCORE.SYSTEM>
-1.99145

>  <SCORE.SYSTEM.CONST>
0

>  <SCORE.SYSTEM.DIHEDRAL>
1.28632

>  <SCORE.SYSTEM.POLAR>
-0.507449

>  <SCORE.SYSTEM.VDW>
-0.909286

>  <SCORE.SYSTEM.norm>
-0.0765943

>  <SCORE.heavy>
26

>  <SCORE.norm>
-0.350282

$$$$
S58.pdb
  rDOCK(R)          3D
libRbt.so/2013.1/901 2013/11/27
 28 30  0  0  0  0  0  0  0  0999 V2000
   24.9833   30.8044   30.6726 C   0  0  0  0  0  0
   24.2948   29.8339   30.0105 C   0  0  0  0  0  0
   24.8634   30.4801   32.1237 C   0  0  0  0  0  0
   25.3519   31.2689   33.3016 C   0  0  0  0  0  0
   23.3166   27.6724   30.7222 C   0  0  0  0  0  0
   22.0664   27.5430   30.1042 C   0  0  0  0  0  0
   21.5735   26.2784   29.8189 C   0  0  0  0  0  0
   22.3406   25.1383   30.1521 C   0  0  0  0  0  0
   23.5949   25.2719   30.7709 C   0  0  0  0  0  0
   24.0834   26.5485   31.0596 C   0  0  0  0  0  0
   24.0993   29.7939   28.5289 C   0  0  0  0  0  0
   23.6422   28.5995   27.9161 C   0  0  0  0  0  0
   23.3095   28.5883   26.5488 C   0  0  0  0  0  0
   23.4248   29.7546   25.7971 C   0  0  0  0  0  0
   23.9040   30.9288   26.3883 C   0  0  0  0  0  0
   24.2425   30.9520   27.7619 C   0  0  0  0  0  0
   23.7875   28.9432   30.9292 N   0  0  0  0  0  0
   24.1757   29.3763   32.2351 N   0  0  0  0  0  0
   20.3109   23.1842   30.7920 N   0  0  0  0  0  0
   22.7445   22.5156   29.9964 O   0  0  0  0  0  0
   21.3254   23.4509   28.3841 O   0  0  0  0  0  0
   22.7859   29.7832   24.0655 Br  0  0  0  0  0  0
   24.6790   30.8800   34.4134 F   0  0  0  0  0  0
   25.2044   32.5819   33.0655 F   0  0  0  0  0  0
   26.6513   30.9982   33.4678 F   0  0  0  0  0  0
   21.7075   23.4717   29.7682 S   0  0  0  0  0  0
   20.2875   23.5559   31.6956 H   0  0  0  0  0  0
   19.5550   22.6546   30.4583 H   0  0  0  0  0  0
  1  3  1  0  0  0
  2  1  2  0  0  0
  2 17  1  0  0  0
  3 18  2  0  0  0
  3  4  1  0  0  0
  4 23  1  0  0  0
  4 25  1  0  0  0
  5 17  1  0  0  0
  5  6  2  0  0  0
  7  6  1  0  0  0
  8  7  2  0  0  0
  9 10  2  0  0  0
  9  8  1  0  0  0
 10  5  1  0  0  0
 11  2  1  0  0  0
 12 11  1  0  0  0
 13 12  2  0  0  0
 14 15  2  0  0  0
 14 13  1  0  0  0
 15 16  1  0  0  0
 16 11  2  0  0  0
 17 18  1  0  0  0
 19 28  1  0  0  0
 20 26  2  0  0  0
 22 14  1  0  0  0
 24  4  1  0  0  0
 26  8  1  0  0  0
 26 19  1  0  0  0
 26 21  2  0  0  0
 27 19  1  0  0  0
M  END
>  <CHROM.0>
-80.05362117,-70.66708536,-119.65975899,-3.62542809

>  <CHROM.1>
159.93612442,-73.84774283,165.50372052,-67.69983008,-34.22207117,23.39214247
28.29537780,29.21348543,-0.57439625,-1.15251997,-1.07362577

>  <FORMUL>
      S58    C16 H11 Br1 F3 N3 O2 S1

>  <HET>
 S58  A 701      28

>  <HETNAM>
     S58 1-PHENYLSULFONAMIDE-3-TRIFLUOROMETHYL-5-PARABROMOPHENYL
   2 S58 PYRAZOLE

>  <Name>
S58.pdb

>  <RI>
0

>  <Rbt.Current_Directory>
/home/malgorzata/Desktop/rDOCK_IFD/Wyniki/3a_COX2/IFD

>  <Rbt.Executable>
rbdock ($Id: //depot/dev/client3/rdock/2013.1/src/exe/rbdock.cxx#4 $)

>  <Rbt.Library>
libRbt.so (2013.1, Build901 2013/11/27)

>  <Rbt.Parameter_File>
/home/malgorzata/Desktop/rDock_2013.1_src/data/scripts/hard_docking.prm

>  <Rbt.Receptor>
cavity.prm

>  <SCORE>
-12.4042

>  <SCORE.INTER>
-9.07389

>  <SCORE.INTER.CONST>
1

>  <SCORE.INTER.POLAR>
-1.6627

>  <SCORE.INTER.REPUL>
0

>  <SCORE.INTER.ROT>
5

>  <SCORE.INTER.VDW>
-13.8207

>  <SCORE.INTER.norm>
-0.348996

>  <SCORE.INTRA>
-1.04818

>  <SCORE.INTRA.DIHEDRAL>
-3.25212

>  <SCORE.INTRA.DIHEDRAL.0>
18.1022

>  <SCORE.INTRA.POLAR>
0

>  <SCORE.INTRA.POLAR.0>
0

>  <SCORE.INTRA.REPUL>
0

>  <SCORE.INTRA.REPUL.0>
0

>  <SCORE.INTRA.VDW>
0.577882

>  <SCORE.INTRA.VDW.0>
-2.81782

>  <SCORE.INTRA.norm>
-0.0403146

>  <SCORE.RESTR>
0

>  <SCORE.RESTR.CAVITY>
0

>  <SCORE.RESTR.norm>
0

>  <SCORE.SYSTEM>
-2.28215

>  <SCORE.SYSTEM.CONST>
0

>  <SCORE.SYSTEM.DIHEDRAL>
1.35807

>  <SCORE.SYSTEM.POLAR>
-0.508637

>  <SCORE.SYSTEM.VDW>
-1.23182

>  <SCORE.SYSTEM.norm>
-0.0877749

>  <SCORE.heavy>
26

>  <SCORE.norm>
-0.477085

$$$$
S58.pdb
  rDOCK(R)          3D
libRbt.so/2013.1/901 2013/11/27
 28 30  0  0  0  0  0  0  0  0999 V2000
   24.3498   30.9475   30.9413 C   0  0  0  0  0  0
   23.6735   30.0181   30.2112 C   0  0  0  0  0  0
   24.2574   30.5043   32.3627 C   0  0  0  0  0  0
   24.7450   31.2064   33.5946 C   0  0  0  0  0  0
   22.7529   27.7844   30.7572 C   0  0  0  0  0  0
   22.2800   27.5656   29.4571 C   0  0  0  0  0  0
   21.8740   26.2933   29.0833 C   0  0  0  0  0  0
   21.9462   25.2345   30.0176 C   0  0  0  0  0  0
   22.4222   25.4572   31.3206 C   0  0  0  0  0  0
   22.8253   26.7422   31.6919 C   0  0  0  0  0  0
   23.4581   30.0935   28.7337 C   0  0  0  0  0  0
   22.1364   30.1092   28.2199 C   0  0  0  0  0  0
   21.9131   30.3310   26.8483 C   0  0  0  0  0  0
   22.9928   30.5405   25.9946 C   0  0  0  0  0  0
   24.3008   30.4960   26.4896 C   0  0  0  0  0  0
   24.5378   30.2730   27.8665 C   0  0  0  0  0  0
   23.1987   29.0447   31.0608 N   0  0  0  0  0  0
   23.5956   29.3797   32.3926 N   0  0  0  0  0  0
   21.0544   23.5888   27.8168 N   0  0  0  0  0  0
   20.2988   23.1701   30.3179 O   0  0  0  0  0  0
   22.5232   22.6621   29.7870 O   0  0  0  0  0  0
   22.6808   31.0409   24.2453 Br  0  0  0  0  0  0
   26.0549   30.9130   33.7905 F   0  0  0  0  0  0
   23.9938   30.8536   34.6495 F   0  0  0  0  0  0
   24.6240   32.5233   33.3929 F   0  0  0  0  0  0
   21.4279   23.5550   29.5315 S   0  0  0  0  0  0
   21.7482   23.3672   27.1650 H   0  0  0  0  0  0
   20.1520   23.8266   27.5129 H   0  0  0  0  0  0
  1  3  1  0  0  0
  2  1  2  0  0  0
  2 17  1  0  0  0
  3 18  2  0  0  0
  3  4  1  0  0  0
  4 23  1  0  0  0
  4 25  1  0  0  0
  5 17  1  0  0  0
  5  6  2  0  0  0
  7  6  1  0  0  0
  8  7  2  0  0  0
  9 10  2  0  0  0
  9  8  1  0  0  0
 10  5  1  0  0  0
 11  2  1  0  0  0
 12 11  1  0  0  0
 13 12  2  0  0  0
 14 15  2  0  0  0
 14 13  1  0  0  0
 15 16  1  0  0  0
 16 11  2  0  0  0
 17 18  1  0  0  0
 19 28  1  0  0  0
 20 26  2  0  0  0
 22 14  1  0  0  0
 24  4  1  0  0  0
 26  8  1  0  0  0
 26 19  1  0  0  0
 26 21  2  0  0  0
 27 19  1  0  0  0
M  END
>  <CHROM.0>
109.54412107,-178.10026968,-143.84383192,-146.78805152

>  <CHROM.1>
-84.97350583,-24.00862061,-121.08563962,5.45492912,92.38540965,22.97759403
28.65024620,29.28050172,-1.46915961,1.19500144,2.12816867

>  <FORMUL>
      S58    C16 H11 Br1 F3 N3 O2 S1

>  <HET>
 S58  A 701      28

>  <HETNAM>
     S58 1-PHENYLSULFONAMIDE-3-TRIFLUOROMETHYL-5-PARABROMOPHENYL
   2 S58 PYRAZOLE

>  <Name>
S58.pdb

>  <RI>
0

>  <Rbt.Current_Directory>
/home/malgorzata/Desktop/rDOCK_IFD/Wyniki/3a_COX2/IFD

>  <Rbt.Executable>
rbdock ($Id: //depot/dev/client3/rdock/2013.1/src/exe/rbdock.cxx#4 $)

>  <Rbt.Library>
libRbt.so (2013.1, Build901 2013/11/27)

>  <Rbt.Parameter_File>
/home/malgorzata/Desktop/rDock_2013.1_src/data/scripts/hard_docking.prm

>  <Rbt.Receptor>
cavity.prm

>  <SCORE>
-8.65413

>  <SCORE.INTER>
-6.60393

>  <SCORE.INTER.CONST>
1

>  <SCORE.INTER.POLAR>
-1.41781

>  <SCORE.INTER.REPUL>
0

>  <SCORE.INTER.ROT>
5

>  <SCORE.INTER.VDW>
-12.1834

>  <SCORE.INTER.norm>
-0.253997

>  <SCORE.INTRA>
-1.09391

>  <SCORE.INTRA.DIHEDRAL>
-5.20866

>  <SCORE.INTRA.DIHEDRAL.0>
18.1022

>  <SCORE.INTRA.POLAR>
0

>  <SCORE.INTRA.POLAR.0>
0

>  <SCORE.INTRA.REPUL>
0

>  <SCORE.INTRA.REPUL.0>
0

>  <SCORE.INTRA.VDW>
1.51042

>  <SCORE.INTRA.VDW.0>
-2.81782

>  <SCORE.INTRA.norm>
-0.0420734

>  <SCORE.RESTR>
0

>  <SCORE.RESTR.CAVITY>
0

>  <SCORE.RESTR.norm>
0

>  <SCORE.SYSTEM>
-0.956284

>  <SCORE.SYSTEM.CONST>
0

>  <SCORE.SYSTEM.DIHEDRAL>
2.25593

>  <SCORE.SYSTEM.REPUL>
0.0347778

>  <SCORE.SYSTEM.VDW>
-2.25814

>  <SCORE.SYSTEM.norm>
-0.0367802

>  <SCORE.heavy>
26

>  <SCORE.norm>
-0.332851

$$$$
S58.pdb
  rDOCK(R)          3D
libRbt.so/2013.1/901 2013/11/27
 28 30  0  0  0  0  0  0  0  0999 V2000
   20.5582   26.5770   26.4538 C   0  0  0  0  0  0
   21.4674   27.5605   26.2079 C   0  0  0  0  0  0
   21.1225   25.7612   27.5679 C   0  0  0  0  0  0
   20.5798   24.5003   28.1715 C   0  0  0  0  0  0
   23.4818   28.3401   27.4201 C   0  0  0  0  0  0
   23.1164   29.6921   27.4008 C   0  0  0  0  0  0
   24.0372   30.6538   27.7892 C   0  0  0  0  0  0
   25.3297   30.2565   28.2024 C   0  0  0  0  0  0
   25.6925   28.8993   28.2218 C   0  0  0  0  0  0
   24.7616   27.9362   27.8250 C   0  0  0  0  0  0
   21.3392   28.5814   25.1234 C   0  0  0  0  0  0
   20.0539   28.9155   24.6261 C   0  0  0  0  0  0
   19.9014   29.9778   23.7158 C   0  0  0  0  0  0
   21.0154   30.7059   23.3065 C   0  0  0  0  0  0
   22.2902   30.3623   23.7696 C   0  0  0  0  0  0
   22.4560   29.2956   24.6843 C   0  0  0  0  0  0
   22.5190   27.4234   27.0854 N   0  0  0  0  0  0
   22.2584   26.2960   27.9248 N   0  0  0  0  0  0
   27.0781   32.3692   27.2930 N   0  0  0  0  0  0
   27.6248   30.8629   29.3987 O   0  0  0  0  0  0
   25.8844   32.4135   29.6320 O   0  0  0  0  0  0
   20.7793   32.2250   22.2846 Br  0  0  0  0  0  0
   21.5203   23.5256   28.0979 F   0  0  0  0  0  0
   19.4463   24.1452   27.5464 F   0  0  0  0  0  0
   20.3109   24.7432   29.4592 F   0  0  0  0  0  0
   26.5430   31.5124   28.7284 S   0  0  0  0  0  0
   26.4763   32.4563   26.5278 H   0  0  0  0  0  0
   27.9770   32.7619   27.2590 H   0  0  0  0  0  0
  1  3  1  0  0  0
  2  1  2  0  0  0
  2 17  1  0  0  0
  3 18  2  0  0  0
  3  4  1  0  0  0
  4 23  1  0  0  0
  4 25  1  0  0  0
  5 17  1  0  0  0
  5  6  2  0  0  0
  7  6  1  0  0  0
  8  7  2  0  0  0
  9 10  2  0  0  0
  9  8  1  0  0  0
 10  5  1  0  0  0
 11  2  1  0  0  0
 12 11  1  0  0  0
 13 12  2  0  0  0
 14 15  2  0  0  0
 14 13  1  0  0  0
 15 16  1  0  0  0
 16 11  2  0  0  0
 17 18  1  0  0  0
 19 28  1  0  0  0
 20 26  2  0  0  0
 22 14  1  0  0  0
 24  4  1  0  0  0
 26  8  1  0  0  0
 26 19  1  0  0  0
 26 21  2  0  0  0
 27 19  1  0  0  0
M  END
>  <CHROM.0>
92.26608268,-70.37787871,66.31438379,-177.13461782

>  <CHROM.1>
123.59253137,31.44648333,24.68197234,-72.47173246,28.90097939,22.60615194
29.15575355,26.34618816,1.73473113,0.66506860,2.48257832

>  <FORMUL>
      S58    C16 H11 Br1 F3 N3 O2 S1

>  <HET>
 S58  A 701      28

>  <HETNAM>
     S58 1-PHENYLSULFONAMIDE-3-TRIFLUOROMETHYL-5-PARABROMOPHENYL
   2 S58 PYRAZOLE

>  <Name>
S58.pdb

>  <RI>
0

>  <Rbt.Current_Directory>
/home/malgorzata/Desktop/rDOCK_IFD/Wyniki/3a_COX2/IFD

>  <Rbt.Executable>
rbdock ($Id: //depot/dev/client3/rdock/2013.1/src/exe/rbdock.cxx#4 $)

>  <Rbt.Library>
libRbt.so (2013.1, Build901 2013/11/27)

>  <Rbt.Parameter_File>
/home/malgorzata/Desktop/rDock_2013.1_src/data/scripts/hard_docking.prm

>  <Rbt.Receptor>
cavity.prm

>  <SCORE>
-14.8276

>  <SCORE.INTER>
-12.8377

>  <SCORE.INTER.CONST>
1

>  <SCORE.INTER.POLAR>
-1.54239

>  <SCORE.INTER.REPUL>
0

>  <SCORE.INTER.ROT>
5

>  <SCORE.INTER.VDW>
-17.9936

>  <SCORE.INTER.norm>
-0.493758

>  <SCORE.INTRA>
-2.73433

>  <SCORE.INTRA.DIHEDRAL>
-8.14157

>  <SCORE.INTRA.DIHEDRAL.0>
18.1022

>  <SCORE.INTRA.POLAR>
0

>  <SCORE.INTRA.POLAR.0>
0

>  <SCORE.INTRA.REPUL>
0

>  <SCORE.INTRA.REPUL.0>
0

>  <SCORE.INTRA.VDW>
1.33645

>  <SCORE.INTRA.VDW.0>
-2.81782

>  <SCORE.INTRA.norm>
-0.105167

>  <SCORE.RESTR>
3.32059

>  <SCORE.RESTR.CAVITY>
3.32059

>  <SCORE.RESTR.norm>
0.127715

>  <SCORE.SYSTEM>
-2.57617

>  <SCORE.SYSTEM.CONST>
0

>  <SCORE.SYSTEM.DIHEDRAL>
1.33887

>  <SCORE.SYSTEM.POLAR>
-0.508054

>  <SCORE.SYSTEM.VDW>
-1.51822

>  <SCORE.SYSTEM.norm>
-0.0990833

>  <SCORE.heavy>
26

>  <SCORE.norm>
-0.570293

$$$$
S58.pdb
  rDOCK(R)          3D
libRbt.so/2013.1/901 2013/11/27
 28 30  0  0  0  0  0  0  0  0999 V2000
   23.8484   27.4923   29.6301 C   0  0  0  0  0  0
   24.7173   28.4319   29.1648 C   0  0  0  0  0  0
   24.6390   26.6110   30.5376 C   0  0  0  0  0  0
   24.2012   25.3629   31.2440 C   0  0  0  0  0  0
   27.0266   29.0602   29.8029 C   0  0  0  0  0  0
   26.7650   30.4332   29.7116 C   0  0  0  0  0  0
   27.8082   31.3373   29.8451 C   0  0  0  0  0  0
   29.1196   30.8615   30.0751 C   0  0  0  0  0  0
   29.3783   29.4836   30.1674 C   0  0  0  0  0  0
   28.3237   28.5782   30.0274 C   0  0  0  0  0  0
   24.3665   29.4930   28.1718 C   0  0  0  0  0  0
   23.0849   30.0982   28.2187 C   0  0  0  0  0  0
   22.7915   31.1989   27.3925 C   0  0  0  0  0  0
   23.7642   31.6980   26.5304 C   0  0  0  0  0  0
   25.0207   31.0867   26.4570 C   0  0  0  0  0  0
   25.3269   29.9789   27.2821 C   0  0  0  0  0  0
   25.9548   28.2090   29.7245 N   0  0  0  0  0  0
   25.8596   27.0709   30.5843 N   0  0  0  0  0  0
   30.4754   32.6199   31.9237 N   0  0  0  0  0  0
   30.3301   33.1067   29.3268 O   0  0  0  0  0  0
   31.7205   31.3438   29.9952 O   0  0  0  0  0  0
   23.4420   33.2664   25.6117 Br  0  0  0  0  0  0
   25.2888   24.6069   31.5365 F   0  0  0  0  0  0
   23.3201   24.6929   30.4848 F   0  0  0  0  0  0
   23.6074   25.7238   32.3870 F   0  0  0  0  0  0
   30.4958   32.0428   30.2661 S   0  0  0  0  0  0
   31.3099   32.8959   32.3513 H   0  0  0  0  0  0
   29.6296   32.6682   32.4191 H   0  0  0  0  0  0
  1  3  1  0  0  0
  2  1  2  0  0  0
  2 17  1  0  0  0
  3 18  2  0  0  0
  3  4  1  0  0  0
  4 23  1  0  0  0
  4 25  1  0  0  0
  5 17  1  0  0  0
  5  6  2  0  0  0
  7  6  1  0  0  0
  8  7  2  0  0  0
  9 10  2  0  0  0
  9  8  1  0  0  0
 10  5  1  0  0  0
 11  2  1  0  0  0
 12 11  1  0  0  0
 13 12  2  0  0  0
 14 15  2  0  0  0
 14 13  1  0  0  0
 15 16  1  0  0  0
 16 11  2  0  0  0
 17 18  1  0  0  0
 19 28  1  0  0  0
 20 26  2  0  0  0
 22 14  1  0  0  0
 24  4  1  0  0  0
 26  8  1  0  0  0
 26 19  1  0  0  0
 26 21  2  0  0  0
 27 19  1  0  0  0
M  END
>  <CHROM.0>
163.69456927,-71.58482707,65.22333424,-5.89773791

>  <CHROM.1>
156.96107275,22.51724574,36.91859822,81.71050610,150.83991135,25.97360547
29.96286749,29.02843514,1.64017046,0.42429124,2.56578024

>  <FORMUL>
      S58    C16 H11 Br1 F3 N3 O2 S1

>  <HET>
 S58  A 701      28

>  <HETNAM>
     S58 1-PHENYLSULFONAMIDE-3-TRIFLUOROMETHYL-5-PARABROMOPHENYL
   2 S58 PYRAZOLE

>  <Name>
S58.pdb

>  <RI>
0

>  <Rbt.Current_Directory>
/home/malgorzata/Desktop/rDOCK_IFD/Wyniki/3a_COX2/IFD

>  <Rbt.Executable>
rbdock ($Id: //depot/dev/client3/rdock/2013.1/src/exe/rbdock.cxx#4 $)

>  <Rbt.Library>
libRbt.so (2013.1, Build901 2013/11/27)

>  <Rbt.Parameter_File>
/home/malgorzata/Desktop/rDock_2013.1_src/data/scripts/hard_docking.prm

>  <Rbt.Receptor>
cavity.prm

>  <SCORE>
-9.48498

>  <SCORE.INTER>
-4.51732

>  <SCORE.INTER.CONST>
1

>  <SCORE.INTER.POLAR>
-0.663325

>  <SCORE.INTER.REPUL>
0.00829515

>  <SCORE.INTER.ROT>
5

>  <SCORE.INTER.VDW>
-12.7035

>  <SCORE.INTER.norm>
-0.173743

>  <SCORE.INTRA>
-2.70749

>  <SCORE.INTRA.DIHEDRAL>
-7.78586

>  <SCORE.INTRA.DIHEDRAL.0>
18.1022

>  <SCORE.INTRA.POLAR>
0

>  <SCORE.INTRA.POLAR.0>
0

>  <SCORE.INTRA.REPUL>
0

>  <SCORE.INTRA.REPUL.0>
0

>  <SCORE.INTRA.VDW>
1.18543

>  <SCORE.INTRA.VDW.0>
-2.81782

>  <SCORE.INTRA.norm>
-0.104134

>  <SCORE.RESTR>
0

>  <SCORE.RESTR.CAVITY>
0

>  <SCORE.RESTR.norm>
0

>  <SCORE.SYSTEM>
-2.26017

>  <SCORE.SYSTEM.CONST>
0

>  <SCORE.SYSTEM.DIHEDRAL>
1.48502

>  <SCORE.SYSTEM.POLAR>
-0.510271

>  <SCORE.SYSTEM.VDW>
-1.26776

>  <SCORE.SYSTEM.norm>
-0.0869297

>  <SCORE.heavy>
26

>  <SCORE.norm>
-0.364807

$$$$
S58.pdb
  rDOCK(R)          3D
libRbt.so/2013.1/901 2013/11/27
 28 30  0  0  0  0  0  0  0  0999 V2000
   24.9322   28.5082   31.3497 C   0  0  0  0  0  0
   24.0365   28.0080   30.4544 C   0  0  0  0  0  0
   25.8894   29.3353   30.5592 C   0  0  0  0  0  0
   27.1277   30.0382   31.0294 C   0  0  0  0  0  0
   23.5769   28.4995   28.0706 C   0  0  0  0  0  0
   22.1887   28.4363   28.2455 C   0  0  0  0  0  0
   21.3567   28.5189   27.1390 C   0  0  0  0  0  0
   21.9204   28.6694   25.8511 C   0  0  0  0  0  0
   23.3133   28.7337   25.6794 C   0  0  0  0  0  0
   24.1458   28.6453   26.7977 C   0  0  0  0  0  0
   22.9256   27.0695   30.8010 C   0  0  0  0  0  0
   22.4657   26.1423   29.8315 C   0  0  0  0  0  0
   21.5284   25.1543   30.1860 C   0  0  0  0  0  0
   21.0554   25.0841   31.4936 C   0  0  0  0  0  0
   21.4819   26.0146   32.4476 C   0  0  0  0  0  0
   22.4232   27.0130   32.1026 C   0  0  0  0  0  0
   24.3550   28.4741   29.1991 N   0  0  0  0  0  0
   25.5102   29.3088   29.3106 N   0  0  0  0  0  0
   21.5541   29.9545   23.2895 N   0  0  0  0  0  0
   19.5296   29.1937   24.8141 O   0  0  0  0  0  0
   20.7678   27.4966   23.7775 O   0  0  0  0  0  0
   19.9952   23.6596   31.9983 Br  0  0  0  0  0  0
   26.7772   31.1262   31.7597 F   0  0  0  0  0  0
   27.8919   30.3711   29.9774 F   0  0  0  0  0  0
   27.8075   29.1939   31.8134 F   0  0  0  0  0  0
   20.8343   28.7931   24.3913 S   0  0  0  0  0  0
   22.3894   29.7352   22.8317 H   0  0  0  0  0  0
   21.1190   30.8198   23.1311 H   0  0  0  0  0  0
  1  3  1  0  0  0
  2  1  2  0  0  0
  2 17  1  0  0  0
  3 18  2  0  0  0
  3  4  1  0  0  0
  4 23  1  0  0  0
  4 25  1  0  0  0
  5 17  1  0  0  0
  5  6  2  0  0  0
  7  6  1  0  0  0
  8  7  2  0  0  0
  9 10  2  0  0  0
  9  8  1  0  0  0
 10  5  1  0  0  0
 11  2  1  0  0  0
 12 11  1  0  0  0
 13 12  2  0  0  0
 14 15  2  0  0  0
 14 13  1  0  0  0
 15 16  1  0  0  0
 16 11  2  0  0  0
 17 18  1  0  0  0
 19 28  1  0  0  0
 20 26  2  0  0  0
 22 14  1  0  0  0
 24  4  1  0  0  0
 26  8  1  0  0  0
 26 19  1  0  0  0
 26 21  2  0  0  0
 27 19  1  0  0  0
M  END
>  <CHROM.0>
100.84426784,-68.52002453,63.82184654,-6.53942731

>  <CHROM.1>
-73.21571401,21.32550401,-150.46012355,142.41627834,68.77293305,22.80254923
27.59494504,29.17949443,-1.94307814,-0.60770386,-1.07942177

>  <FORMUL>
      S58    C16 H11 Br1 F3 N3 O2 S1

>  <HET>
 S58  A 701      28

>  <HETNAM>
     S58 1-PHENYLSULFONAMIDE-3-TRIFLUOROMETHYL-5-PARABROMOPHENYL
   2 S58 PYRAZOLE

>  <Name>
S58.pdb

>  <RI>
0

>  <Rbt.Current_Directory>
/home/malgorzata/Desktop/rDOCK_IFD/Wyniki/3a_COX2/IFD

>  <Rbt.Executable>
rbdock ($Id: //depot/dev/client3/rdock/2013.1/src/exe/rbdock.cxx#4 $)

>  <Rbt.Library>
libRbt.so (2013.1, Build901 2013/11/27)

>  <Rbt.Parameter_File>
/home/malgorzata/Desktop/rDock_2013.1_src/data/scripts/hard_docking.prm

>  <Rbt.Receptor>
cavity.prm

>  <SCORE>
-10.2187

>  <SCORE.INTER>
-5.27117

>  <SCORE.INTER.CONST>
1

>  <SCORE.INTER.POLAR>
-1.13137

>  <SCORE.INTER.REPUL>
0

>  <SCORE.INTER.ROT>
5

>  <SCORE.INTER.VDW>
-11.8245

>  <SCORE.INTER.norm>
-0.202737

>  <SCORE.INTRA>
-2.96611

>  <SCORE.INTRA.DIHEDRAL>
-9.33457

>  <SCORE.INTRA.DIHEDRAL.0>
18.1022

>  <SCORE.INTRA.POLAR>
0

>  <SCORE.INTRA.POLAR.0>
0

>  <SCORE.INTRA.REPUL>
0

>  <SCORE.INTRA.REPUL.0>
0

>  <SCORE.INTRA.VDW>
1.70117

>  <SCORE.INTRA.VDW.0>
-2.81782

>  <SCORE.INTRA.norm>
-0.114081

>  <SCORE.RESTR>
0.485917

>  <SCORE.RESTR.CAVITY>
0.485917

>  <SCORE.RESTR.norm>
0.0186891

>  <SCORE.SYSTEM>
-2.4673

>  <SCORE.SYSTEM.CONST>
0

>  <SCORE.SYSTEM.DIHEDRAL>
1.22336

>  <SCORE.SYSTEM.POLAR>
-0.503537

>  <SCORE.SYSTEM.VDW>
-1.36695

>  <SCORE.SYSTEM.norm>
-0.094896

>  <SCORE.heavy>
26

>  <SCORE.norm>
-0.393026

$$$$
S58.pdb
  rDOCK(R)          3D
libRbt.so/2013.1/901 2013/11/27
 28 30  0  0  0  0  0  0  0  0999 V2000
   26.4436   28.4477   28.6655 C   0  0  0  0  0  0
   26.2457   29.7608   28.3643 C   0  0  0  0  0  0
   27.7016   28.3917   29.4652 C   0  0  0  0  0  0
   28.4323   27.1859   29.9756 C   0  0  0  0  0  0
   27.3062   31.8541   29.1572 C   0  0  0  0  0  0
   27.5489   32.2734   30.4713 C   0  0  0  0  0  0
   27.6652   33.6280   30.7453 C   0  0  0  0  0  0
   27.5410   34.5661   29.6948 C   0  0  0  0  0  0
   27.2988   34.1420   28.3775 C   0  0  0  0  0  0
   27.1782   32.7763   28.1092 C   0  0  0  0  0  0
   25.1259   30.2772   27.5191 C   0  0  0  0  0  0
   24.7502   31.6413   27.6138 C   0  0  0  0  0  0
   23.8037   32.1782   26.7214 C   0  0  0  0  0  0
   23.2386   31.3686   25.7397 C   0  0  0  0  0  0
   23.5820   30.0146   25.6601 C   0  0  0  0  0  0
   24.5317   29.4633   26.5523 C   0  0  0  0  0  0
   27.2591   30.5035   28.9263 N   0  0  0  0  0  0
   28.1395   29.6122   29.6147 N   0  0  0  0  0  0
   29.1786   36.9077   29.2670 N   0  0  0  0  0  0
   27.7382   36.5463   31.4572 O   0  0  0  0  0  0
   26.5636   37.0165   29.4857 O   0  0  0  0  0  0
   22.1648   32.1297   24.4453 Br  0  0  0  0  0  0
   27.5338   26.2449   30.3594 F   0  0  0  0  0  0
   29.2454   27.5369   30.9842 F   0  0  0  0  0  0
   29.1680   26.6951   28.9719 F   0  0  0  0  0  0
   27.7064   36.3487   30.0425 S   0  0  0  0  0  0
   30.0229   36.4469   29.4405 H   0  0  0  0  0  0
   29.1545   37.6782   28.6596 H   0  0  0  0  0  0
  1  3  1  0  0  0
  2  1  2  0  0  0
  2 17  1  0  0  0
  3 18  2  0  0  0
  3  4  1  0  0  0
  4 23  1  0  0  0
  4 25  1  0  0  0
  5 17  1  0  0  0
  5  6  2  0  0  0
  7  6  1  0  0  0
  8  7  2  0  0  0
  9 10  2  0  0  0
  9  8  1  0  0  0
 10  5  1  0  0  0
 11  2  1  0  0  0
 12 11  1  0  0  0
 13 12  2  0  0  0
 14 15  2  0  0  0
 14 13  1  0  0  0
 15 16  1  0  0  0
 16 11  2  0  0  0
 17 18  1  0  0  0
 19 28  1  0  0  0
 20 26  2  0  0  0
 22 14  1  0  0  0
 24  4  1  0  0  0
 26  8  1  0  0  0
 26 19  1  0  0  0
 26 21  2  0  0  0
 27 19  1  0  0  0
M  END
>  <CHROM.0>
-70.75065835,177.07623773,62.37795428,176.93303375

>  <CHROM.1>
-37.19732613,123.75166429,159.63488823,112.39438287,-52.91056812,26.14112897
31.68725022,28.21274717,0.16322205,0.74630252,-3.07807003

>  <FORMUL>
      S58    C16 H11 Br1 F3 N3 O2 S1

>  <HET>
 S58  A 701      28

>  <HETNAM>
     S58 1-PHENYLSULFONAMIDE-3-TRIFLUOROMETHYL-5-PARABROMOPHENYL
   2 S58 PYRAZOLE

>  <Name>
S58.pdb

>  <RI>
0

>  <Rbt.Current_Directory>
/home/malgorzata/Desktop/rDOCK_IFD/Wyniki/3a_COX2/IFD

>  <Rbt.Executable>
rbdock ($Id: //depot/dev/client3/rdock/2013.1/src/exe/rbdock.cxx#4 $)

>  <Rbt.Library>
libRbt.so (2013.1, Build901 2013/11/27)

>  <Rbt.Parameter_File>
/home/malgorzata/Desktop/rDock_2013.1_src/data/scripts/hard_docking.prm

>  <Rbt.Receptor>
cavity.prm

>  <SCORE>
-10.7899

>  <SCORE.INTER>
-8.99981

>  <SCORE.INTER.CONST>
1

>  <SCORE.INTER.POLAR>
-1.68277

>  <SCORE.INTER.REPUL>
0

>  <SCORE.INTER.ROT>
5

>  <SCORE.INTER.VDW>
-13.6784

>  <SCORE.INTER.norm>
-0.346146

>  <SCORE.INTRA>
-0.779124

>  <SCORE.INTRA.DIHEDRAL>
-5.596

>  <SCORE.INTRA.DIHEDRAL.0>
18.1022

>  <SCORE.INTRA.POLAR>
0

>  <SCORE.INTRA.POLAR.0>
0

>  <SCORE.INTRA.REPUL>
0

>  <SCORE.INTRA.REPUL.0>
0

>  <SCORE.INTRA.VDW>
2.01888

>  <SCORE.INTRA.VDW.0>
-2.81782

>  <SCORE.INTRA.norm>
-0.0299663

>  <SCORE.RESTR>
0.221678

>  <SCORE.RESTR.CAVITY>
0.221678

>  <SCORE.RESTR.norm>
0.00852609

>  <SCORE.SYSTEM>
-1.23263

>  <SCORE.SYSTEM.CONST>
0

>  <SCORE.SYSTEM.DIHEDRAL>
0.850238

>  <SCORE.SYSTEM.REPUL>
0.0417496

>  <SCORE.SYSTEM.VDW>
-1.8665

>  <SCORE.SYSTEM.norm>
-0.047409

>  <SCORE.heavy>
26

>  <SCORE.norm>
-0.414996

$$$$
S58.pdb
  rDOCK(R)          3D
libRbt.so/2013.1/901 2013/11/27
 28 30  0  0  0  0  0  0  0  0999 V2000
   27.6492   26.6705   29.3116 C   0  0  0  0  0  0
   27.0959   27.8744   28.9969 C   0  0  0  0  0  0
   29.0433   26.9596   29.7567 C   0  0  0  0  0  0
   30.1263   25.9910   30.1275 C   0  0  0  0  0  0
   27.8219   30.2141   29.3622 C   0  0  0  0  0  0
   28.8244   30.9540   30.0021 C   0  0  0  0  0  0
   28.6953   32.3309   30.1068 C   0  0  0  0  0  0
   27.5564   32.9688   29.5637 C   0  0  0  0  0  0
   26.5532   32.2237   28.9215 C   0  0  0  0  0  0
   26.6874   30.8366   28.8234 C   0  0  0  0  0  0
   25.7184   28.0559   28.4451 C   0  0  0  0  0  0
   25.5488   28.6604   27.1736 C   0  0  0  0  0  0
   24.2762   28.7026   26.5742 C   0  0  0  0  0  0
   23.1819   28.1447   27.2297 C   0  0  0  0  0  0
   23.3366   27.5739   28.4978 C   0  0  0  0  0  0
   24.6109   27.5264   29.1107 C   0  0  0  0  0  0
   28.0231   28.8645   29.2305 N   0  0  0  0  0  0
   29.2203   28.2521   29.7155 N   0  0  0  0  0  0
   27.0923   35.1765   31.3688 N   0  0  0  0  0  0
   26.3108   35.2031   28.8409 O   0  0  0  0  0  0
   28.6134   35.3728   29.2368 O   0  0  0  0  0  0
   21.5663   28.0148   26.3461 Br  0  0  0  0  0  0
   29.8681   24.7879   29.5567 F   0  0  0  0  0  0
   30.2183   25.8976   31.4633 F   0  0  0  0  0  0
   31.2813   26.4594   29.6417 F   0  0  0  0  0  0
   27.3842   34.7804   29.6839 S   0  0  0  0  0  0
   27.0420   34.4614   32.0332 H   0  0  0  0  0  0
   26.9827   36.1121   31.6440 H   0  0  0  0  0  0
  1  3  1  0  0  0
  2  1  2  0  0  0
  2 17  1  0  0  0
  3 18  2  0  0  0
  3  4  1  0  0  0
  4 23  1  0  0  0
  4 25  1  0  0  0
  5 17  1  0  0  0
  5  6  2  0  0  0
  7  6  1  0  0  0
  8  7  2  0  0  0
  9 10  2  0  0  0
  9  8  1  0  0  0
 10  5  1  0  0  0
 11  2  1  0  0  0
 12 11  1  0  0  0
 13 12  2  0  0  0
 14 15  2  0  0  0
 14 13  1  0  0  0
 15 16  1  0  0  0
 16 11  2  0  0  0
 17 18  1  0  0  0
 19 28  1  0  0  0
 20 26  2  0  0  0
 22 14  1  0  0  0
 24  4  1  0  0  0
 26  8  1  0  0  0
 26 19  1  0  0  0
 26 21  2  0  0  0
 27 19  1  0  0  0
M  END
>  <CHROM.0>
109.10884929,-70.40734704,-90.16748512,-178.97571890

>  <CHROM.1>
22.39310742,160.29374101,-119.52353264,-69.86590347,-0.61778415,26.47658070
29.52030588,28.79013877,-2.46308499,-0.42838486,0.09044550

>  <FORMUL>
      S58    C16 H11 Br1 F3 N3 O2 S1

>  <HET>
 S58  A 701      28

>  <HETNAM>
     S58 1-PHENYLSULFONAMIDE-3-TRIFLUOROMETHYL-5-PARABROMOPHENYL
   2 S58 PYRAZOLE

>  <Name>
S58.pdb

>  <RI>
0

>  <Rbt.Current_Directory>
/home/malgorzata/Desktop/rDOCK_IFD/Wyniki/3a_COX2/IFD

>  <Rbt.Executable>
rbdock ($Id: //depot/dev/client3/rdock/2013.1/src/exe/rbdock.cxx#4 $)

>  <Rbt.Library>
libRbt.so (2013.1, Build901 2013/11/27)

>  <Rbt.Parameter_File>
/home/malgorzata/Desktop/rDock_2013.1_src/data/scripts/hard_docking.prm

>  <Rbt.Receptor>
cavity.prm

>  <SCORE>
-9.44533

>  <SCORE.INTER>
-5.74084

>  <SCORE.INTER.CONST>
1

>  <SCORE.INTER.POLAR>
-0.663325

>  <SCORE.INTER.REPUL>
0.00835199

>  <SCORE.INTER.ROT>
5

>  <SCORE.INTER.VDW>
-13.9273

>  <SCORE.INTER.norm>
-0.220802

>  <SCORE.INTRA>
-1.72596

>  <SCORE.INTRA.DIHEDRAL>
-5.31788

>  <SCORE.INTRA.DIHEDRAL.0>
18.1022

>  <SCORE.INTRA.POLAR>
0

>  <SCORE.INTRA.POLAR.0>
0

>  <SCORE.INTRA.REPUL>
0

>  <SCORE.INTRA.REPUL.0>
0

>  <SCORE.INTRA.VDW>
0.93298

>  <SCORE.INTRA.VDW.0>
-2.81782

>  <SCORE.INTRA.norm>
-0.0663831

>  <SCORE.RESTR>
0.504064

>  <SCORE.RESTR.CAVITY>
0.504064

>  <SCORE.RESTR.norm>
0.0193871

>  <SCORE.SYSTEM>
-2.48259

>  <SCORE.SYSTEM.CONST>
0

>  <SCORE.SYSTEM.DIHEDRAL>
1.33214

>  <SCORE.SYSTEM.POLAR>
-0.508114

>  <SCORE.SYSTEM.VDW>
-1.42108

>  <SCORE.SYSTEM.norm>
-0.0954843

>  <SCORE.heavy>
26

>  <SCORE.norm>
-0.363282

$$$$
S58.pdb
  rDOCK(R)          3D
libRbt.so/2013.1/901 2013/11/27
 28 30  0  0  0  0  0  0  0  0999 V2000
   23.9067   29.3544   29.9528 C   0  0  0  0  0  0
   23.1814   29.2597   28.8043 C   0  0  0  0  0  0
   23.5796   28.1369   30.7503 C   0  0  0  0  0  0
   24.0252   27.7796   32.1367 C   0  0  0  0  0  0
   21.8601   27.4280   27.7872 C   0  0  0  0  0  0
   21.4531   26.1068   28.0117 C   0  0  0  0  0  0
   20.7860   25.4182   27.0095 C   0  0  0  0  0  0
   20.5230   26.0598   25.7773 C   0  0  0  0  0  0
   20.9316   27.3857   25.5559 C   0  0  0  0  0  0
   21.6071   28.0720   26.5680 C   0  0  0  0  0  0
   23.1548   30.2993   27.7303 C   0  0  0  0  0  0
   21.9098   30.8056   27.2781 C   0  0  0  0  0  0
   21.8703   31.8878   26.3793 C   0  0  0  0  0  0
   23.0572   32.4659   25.9371 C   0  0  0  0  0  0
   24.2895   31.9519   26.3555 C   0  0  0  0  0  0
   24.3417   30.8636   27.2582 C   0  0  0  0  0  0
   22.4620   28.0864   28.8282 N   0  0  0  0  0  0
   22.7486   27.4097   30.0543 N   0  0  0  0  0  0
   17.9730   24.9566   24.9849 N   0  0  0  0  0  0
   20.2839   23.9172   24.2224 O   0  0  0  0  0  0
   19.6833   25.9711   23.2692 O   0  0  0  0  0  0
   22.9918   34.0130   24.9322 Br  0  0  0  0  0  0
   23.1463   26.8999   32.6787 F   0  0  0  0  0  0
   24.1388   28.8907   32.8811 F   0  0  0  0  0  0
   25.2228   27.1908   32.0451 F   0  0  0  0  0  0
   19.6341   25.1676   24.4584 S   0  0  0  0  0  0
   17.4403   25.7375   25.2334 H   0  0  0  0  0  0
   17.5790   24.0587   25.0273 H   0  0  0  0  0  0
  1  3  1  0  0  0
  2  1  2  0  0  0
  2 17  1  0  0  0
  3 18  2  0  0  0
  3  4  1  0  0  0
  4 23  1  0  0  0
  4 25  1  0  0  0
  5 17  1  0  0  0
  5  6  2  0  0  0
  7  6  1  0  0  0
  8  7  2  0  0  0
  9 10  2  0  0  0
  9  8  1  0  0  0
 10  5  1  0  0  0
 11  2  1  0  0  0
 12 11  1  0  0  0
 13 12  2  0  0  0
 14 15  2  0  0  0
 14 13  1  0  0  0
 15 16  1  0  0  0
 16 11  2  0  0  0
 17 18  1  0  0  0
 19 28  1  0  0  0
 20 26  2  0  0  0
 22 14  1  0  0  0
 24  4  1  0  0  0
 26  8  1  0  0  0
 26 19  1  0  0  0
 26 21  2  0  0  0
 27 19  1  0  0  0
M  END
>  <CHROM.0>
161.27846361,-71.01895835,64.86637273,-178.32793851

>  <CHROM.1>
156.87197710,165.69231597,-127.10002511,69.36057506,56.26655388,22.26655050
28.91872629,27.30929067,-0.92677831,1.02658484,2.45614203

>  <FORMUL>
      S58    C16 H11 Br1 F3 N3 O2 S1

>  <HET>
 S58  A 701      28

>  <HETNAM>
     S58 1-PHENYLSULFONAMIDE-3-TRIFLUOROMETHYL-5-PARABROMOPHENYL
   2 S58 PYRAZOLE

>  <Name>
S58.pdb

>  <RI>
0

>  <Rbt.Current_Directory>
/home/malgorzata/Desktop/rDOCK_IFD/Wyniki/3a_COX2/IFD

>  <Rbt.Executable>
rbdock ($Id: //depot/dev/client3/rdock/2013.1/src/exe/rbdock.cxx#4 $)

>  <Rbt.Library>
libRbt.so (2013.1, Build901 2013/11/27)

>  <Rbt.Parameter_File>
/home/malgorzata/Desktop/rDock_2013.1_src/data/scripts/hard_docking.prm

>  <Rbt.Receptor>
cavity.prm

>  <SCORE>
-8.05412

>  <SCORE.INTER>
-4.19269

>  <SCORE.INTER.CONST>
1

>  <SCORE.INTER.POLAR>
-0.885265

>  <SCORE.INTER.REPUL>
0.00219738

>  <SCORE.INTER.ROT>
5

>  <SCORE.INTER.VDW>
-11.5938

>  <SCORE.INTER.norm>
-0.161257

>  <SCORE.INTRA>
-2.08057

>  <SCORE.INTRA.DIHEDRAL>
-7.28773

>  <SCORE.INTRA.DIHEDRAL.0>
18.1022

>  <SCORE.INTRA.POLAR>
0

>  <SCORE.INTRA.POLAR.0>
0

>  <SCORE.INTRA.REPUL>
0

>  <SCORE.INTRA.REPUL.0>
0

>  <SCORE.INTRA.VDW>
1.56329

>  <SCORE.INTRA.VDW.0>
-2.81782

>  <SCORE.INTRA.norm>
-0.0800221

>  <SCORE.RESTR>
0.602525

>  <SCORE.RESTR.CAVITY>
0.602525

>  <SCORE.RESTR.norm>
0.023174

>  <SCORE.SYSTEM>
-2.38338

>  <SCORE.SYSTEM.CONST>
0

>  <SCORE.SYSTEM.DIHEDRAL>
1.37714

>  <SCORE.SYSTEM.POLAR>
-0.509302

>  <SCORE.SYSTEM.VDW>
-1.34032

>  <SCORE.SYSTEM.norm>
-0.0916683

>  <SCORE.heavy>
26

>  <SCORE.norm>
-0.309774

$$$$
