S58.pdb
  rDOCK(R)          3D
libRbt.so/2013.1/901 2013/11/27
 28 30  0  0  0  0  0  0  0  0999 V2000
   23.6806   29.9015   26.7438 C   0  0  0  0  0  0
   22.8807   28.8306   27.0040 C   0  0  0  0  0  0
   24.6239   30.0027   27.8949 C   0  0  0  0  0  0
   25.6556   31.0558   28.1686 C   0  0  0  0  0  0
   22.9783   27.0199   28.6914 C   0  0  0  0  0  0
   22.9810   26.8637   30.0832 C   0  0  0  0  0  0
   22.6350   25.6384   30.6334 C   0  0  0  0  0  0
   22.2811   24.5659   29.7827 C   0  0  0  0  0  0
   22.2783   24.7265   28.3870 C   0  0  0  0  0  0
   22.6322   25.9620   27.8393 C   0  0  0  0  0  0
   21.7434   28.3919   26.1386 C   0  0  0  0  0  0
   21.7652   28.6887   24.7520 C   0  0  0  0  0  0
   20.7814   28.1553   23.8987 C   0  0  0  0  0  0
   19.7871   27.3299   24.4169 C   0  0  0  0  0  0
   19.7420   27.0576   25.7886 C   0  0  0  0  0  0
   20.7250   27.5889   26.6564 C   0  0  0  0  0  0
   23.2687   28.2654   28.1976 N   0  0  0  0  0  0
   24.3675   29.0197   28.7145 N   0  0  0  0  0  0
   21.4758   23.2062   32.2014 N   0  0  0  0  0  0
   22.8771   22.0260   30.2921 O   0  0  0  0  0  0
   20.6318   22.4966   29.8177 O   0  0  0  0  0  0
   18.6337   26.4667   23.2626 Br  0  0  0  0  0  0
   25.6657   31.9508   27.1493 F   0  0  0  0  0  0
   26.8580   30.4844   28.3398 F   0  0  0  0  0  0
   25.3085   31.6892   29.2946 F   0  0  0  0  0  0
   21.8111   22.9550   30.4969 S   0  0  0  0  0  0
   21.7597   22.5372   32.8550 H   0  0  0  0  0  0
   21.0075   24.0160   32.4982 H   0  0  0  0  0  0
  1  3  1  0  0  0
  2  1  2  0  0  0
  2 17  1  0  0  0
  3 18  2  0  0  0
  3  4  1  0  0  0
  4 23  1  0  0  0
  4 25  1  0  0  0
  5 17  1  0  0  0
  5  6  2  0  0  0
  7  6  1  0  0  0
  8  7  2  0  0  0
  9 10  2  0  0  0
  9  8  1  0  0  0
 10  5  1  0  0  0
 11  2  1  0  0  0
 12 11  1  0  0  0
 13 12  2  0  0  0
 14 15  2  0  0  0
 14 13  1  0  0  0
 15 16  1  0  0  0
 16 11  2  0  0  0
 17 18  1  0  0  0
 19 28  1  0  0  0
 20 26  2  0  0  0
 22 14  1  0  0  0
 24  4  1  0  0  0
 26  8  1  0  0  0
 26 19  1  0  0  0
 26 21  2  0  0  0
 27 19  1  0  0  0
M  END
>  <CHROM.0>
-57.70795419,-68.03909127,176.88406810,-71.69507597,1.52856953

>  <CHROM.1>
-2.20915561,-153.62215462,26.75150879,15.39926408,-140.79545041,22.10210244
27.06683581,27.37783700,0.15080728,-0.77040748,-0.74481198

>  <FORMUL>
      S58    C16 H11 Br1 F3 N3 O2 S1

>  <HET>
 S58  A 701      28

>  <HETNAM>
     S58 1-PHENYLSULFONAMIDE-3-TRIFLUOROMETHYL-5-PARABROMOPHENYL
   2 S58 PYRAZOLE

>  <Name>
S58.pdb

>  <RI>
0

>  <Rbt.Current_Directory>
/home/malgorzata/Desktop/rDOCK_IFD/test3/IFD

>  <Rbt.Executable>
rbdock ($Id: //depot/dev/client3/rdock/2013.1/src/exe/rbdock.cxx#4 $)

>  <Rbt.Library>
libRbt.so (2013.1, Build901 2013/11/27)

>  <Rbt.Parameter_File>
/home/malgorzata/Desktop/rDock_2013.1_src/data/scripts/hard_docking.prm

>  <Rbt.Receptor>
cavity.prm

>  <SCORE>
-19.3947

>  <SCORE.INTER>
-10.2075

>  <SCORE.INTER.CONST>
1

>  <SCORE.INTER.POLAR>
-0.979796

>  <SCORE.INTER.REPUL>
0

>  <SCORE.INTER.ROT>
5

>  <SCORE.INTER.VDW>
-17.2762

>  <SCORE.INTER.norm>
-0.392596

>  <SCORE.INTRA>
-2.8099

>  <SCORE.INTRA.DIHEDRAL>
-8.82147

>  <SCORE.INTRA.DIHEDRAL.0>
18.1022

>  <SCORE.INTRA.POLAR>
0

>  <SCORE.INTRA.POLAR.0>
0

>  <SCORE.INTRA.REPUL>
0

>  <SCORE.INTRA.REPUL.0>
0

>  <SCORE.INTRA.VDW>
1.60084

>  <SCORE.INTRA.VDW.0>
-2.81782

>  <SCORE.INTRA.norm>
-0.108073

>  <SCORE.RESTR>
0.766658

>  <SCORE.RESTR.CAVITY>
0.766658

>  <SCORE.RESTR.norm>
0.0294869

>  <SCORE.SYSTEM>
-7.14397

>  <SCORE.SYSTEM.CONST>
0

>  <SCORE.SYSTEM.DIHEDRAL>
1.48265

>  <SCORE.SYSTEM.POLAR>
-1.62162

>  <SCORE.SYSTEM.REPUL>
0.080627

>  <SCORE.SYSTEM.VDW>
-2.7749

>  <SCORE.SYSTEM.norm>
-0.274768

>  <SCORE.heavy>
26

>  <SCORE.norm>
-0.74595

$$$$
S58.pdb
  rDOCK(R)          3D
libRbt.so/2013.1/901 2013/11/27
 28 30  0  0  0  0  0  0  0  0999 V2000
   21.6891   27.4096   26.1699 C   0  0  0  0  0  0
   22.6587   28.3552   26.3117 C   0  0  0  0  0  0
   22.0141   26.3336   27.1507 C   0  0  0  0  0  0
   21.3305   25.0143   27.3520 C   0  0  0  0  0  0
   24.4413   28.7075   27.9949 C   0  0  0  0  0  0
   24.1228   29.0505   29.3150 C   0  0  0  0  0  0
   25.0406   29.7583   30.0769 C   0  0  0  0  0  0
   26.2853   30.1204   29.5124 C   0  0  0  0  0  0
   26.6019   29.7736   28.1882 C   0  0  0  0  0  0
   25.6711   29.0646   27.4250 C   0  0  0  0  0  0
   22.7634   29.5932   25.4801 C   0  0  0  0  0  0
   21.8291   29.8155   24.4367 C   0  0  0  0  0  0
   21.8195   31.0408   23.7447 C   0  0  0  0  0  0
   22.7268   32.0392   24.0891 C   0  0  0  0  0  0
   23.6712   31.8152   25.0970 C   0  0  0  0  0  0
   23.6911   30.5870   25.7991 C   0  0  0  0  0  0
   23.5273   27.9564   27.3022 N   0  0  0  0  0  0
   23.0820   26.6957   27.8080 N   0  0  0  0  0  0
   28.7647   31.6012   29.4260 N   0  0  0  0  0  0
   28.0184   30.1763   31.5271 O   0  0  0  0  0  0
   26.8315   32.1537   31.1158 O   0  0  0  0  0  0
   22.5665   33.7119   23.3249 Br  0  0  0  0  0  0
   20.0327   25.1177   26.9709 F   0  0  0  0  0  0
   21.4429   24.6320   28.6337 F   0  0  0  0  0  0
   21.9380   24.1129   26.5723 F   0  0  0  0  0  0
   27.5044   31.0387   30.5106 S   0  0  0  0  0  0
   28.5396   32.2112   28.6963 H   0  0  0  0  0  0
   29.6924   31.3068   29.5526 H   0  0  0  0  0  0
  1  3  1  0  0  0
  2  1  2  0  0  0
  2 17  1  0  0  0
  3 18  2  0  0  0
  3  4  1  0  0  0
  4 23  1  0  0  0
  4 25  1  0  0  0
  5 17  1  0  0  0
  5  6  2  0  0  0
  7  6  1  0  0  0
  8  7  2  0  0  0
  9 10  2  0  0  0
  9  8  1  0  0  0
 10  5  1  0  0  0
 11  2  1  0  0  0
 12 11  1  0  0  0
 13 12  2  0  0  0
 14 15  2  0  0  0
 14 13  1  0  0  0
 15 16  1  0  0  0
 16 11  2  0  0  0
 17 18  1  0  0  0
 19 28  1  0  0  0
 20 26  2  0  0  0
 22 14  1  0  0  0
 24  4  1  0  0  0
 26  8  1  0  0  0
 26 19  1  0  0  0
 26 21  2  0  0  0
 27 19  1  0  0  0
M  END
>  <CHROM.0>
-57.63256824,-89.12197799,-57.66980830,178.95631875,1.31615418

>  <CHROM.1>
-27.41639311,104.77221249,-1.87876327,-168.61148602,61.20750265,23.79421767
29.71221915,26.96473569,1.09086201,0.76031970,2.57303824

>  <FORMUL>
      S58    C16 H11 Br1 F3 N3 O2 S1

>  <HET>
 S58  A 701      28

>  <HETNAM>
     S58 1-PHENYLSULFONAMIDE-3-TRIFLUOROMETHYL-5-PARABROMOPHENYL
   2 S58 PYRAZOLE

>  <Name>
S58.pdb

>  <RI>
0

>  <Rbt.Current_Directory>
/home/malgorzata/Desktop/rDOCK_IFD/test3/IFD

>  <Rbt.Executable>
rbdock ($Id: //depot/dev/client3/rdock/2013.1/src/exe/rbdock.cxx#4 $)

>  <Rbt.Library>
libRbt.so (2013.1, Build901 2013/11/27)

>  <Rbt.Parameter_File>
/home/malgorzata/Desktop/rDock_2013.1_src/data/scripts/hard_docking.prm

>  <Rbt.Receptor>
cavity.prm

>  <SCORE>
-16.3557

>  <SCORE.INTER>
-9.82427

>  <SCORE.INTER.CONST>
1

>  <SCORE.INTER.POLAR>
-0.935414

>  <SCORE.INTER.REPUL>
0

>  <SCORE.INTER.ROT>
5

>  <SCORE.INTER.VDW>
-17.0439

>  <SCORE.INTER.norm>
-0.377857

>  <SCORE.INTRA>
-1.59787

>  <SCORE.INTRA.DIHEDRAL>
-4.0956

>  <SCORE.INTRA.DIHEDRAL.0>
18.1022

>  <SCORE.INTRA.POLAR>
0

>  <SCORE.INTRA.POLAR.0>
0

>  <SCORE.INTRA.REPUL>
0

>  <SCORE.INTRA.REPUL.0>
0

>  <SCORE.INTRA.VDW>
0.449925

>  <SCORE.INTRA.VDW.0>
-2.81782

>  <SCORE.INTRA.norm>
-0.0614567

>  <SCORE.RESTR>
1.27894

>  <SCORE.RESTR.CAVITY>
1.27894

>  <SCORE.RESTR.norm>
0.0491899

>  <SCORE.SYSTEM>
-6.21245

>  <SCORE.SYSTEM.CONST>
0

>  <SCORE.SYSTEM.DIHEDRAL>
0.846566

>  <SCORE.SYSTEM.POLAR>
-1.12602

>  <SCORE.SYSTEM.REPUL>
0.0364618

>  <SCORE.SYSTEM.VDW>
-2.98959

>  <SCORE.SYSTEM.norm>
-0.23894

>  <SCORE.heavy>
26

>  <SCORE.norm>
-0.629064

$$$$
S58.pdb
  rDOCK(R)          3D
libRbt.so/2013.1/901 2013/11/27
 28 30  0  0  0  0  0  0  0  0999 V2000
   22.5707   28.9037   30.6191 C   0  0  0  0  0  0
   22.2875   27.8179   29.8478 C   0  0  0  0  0  0
   22.5282   30.0824   29.7058 C   0  0  0  0  0  0
   22.8558   31.5136   30.0103 C   0  0  0  0  0  0
   21.4439   27.5642   27.5328 C   0  0  0  0  0  0
   21.4905   28.1481   26.2606 C   0  0  0  0  0  0
   20.9351   27.4778   25.1809 C   0  0  0  0  0  0
   20.3333   26.2137   25.3782 C   0  0  0  0  0  0
   20.2893   25.6303   26.6556 C   0  0  0  0  0  0
   20.8466   26.3130   27.7395 C   0  0  0  0  0  0
   22.2793   26.4066   30.3410 C   0  0  0  0  0  0
   21.6339   26.0978   31.5654 C   0  0  0  0  0  0
   21.4859   24.7578   31.9690 C   0  0  0  0  0  0
   21.9701   23.7325   31.1610 C   0  0  0  0  0  0
   22.6347   24.0314   29.9666 C   0  0  0  0  0  0
   22.7904   25.3748   29.5510 C   0  0  0  0  0  0
   22.0589   28.2370   28.5568 N   0  0  0  0  0  0
   22.2070   29.6581   28.5139 N   0  0  0  0  0  0
   18.0666   24.6654   24.4768 N   0  0  0  0  0  0
   20.5173   24.2912   23.5518 O   0  0  0  0  0  0
   19.4276   26.2571   22.8919 O   0  0  0  0  0  0
   21.5833   21.9797   31.5924 Br  0  0  0  0  0  0
   23.1681   32.1582   28.8584 F   0  0  0  0  0  0
   23.8584   31.5737   30.9007 F   0  0  0  0  0  0
   21.7665   32.0813   30.5399 F   0  0  0  0  0  0
   19.6127   25.3180   23.9625 S   0  0  0  0  0  0
   17.6115   24.0021   23.9217 H   0  0  0  0  0  0
   17.6611   24.9629   25.3197 H   0  0  0  0  0  0
  1  3  1  0  0  0
  2  1  2  0  0  0
  2 17  1  0  0  0
  3 18  2  0  0  0
  3  4  1  0  0  0
  4 23  1  0  0  0
  4 25  1  0  0  0
  5 17  1  0  0  0
  5  6  2  0  0  0
  7  6  1  0  0  0
  8  7  2  0  0  0
  9 10  2  0  0  0
  9  8  1  0  0  0
 10  5  1  0  0  0
 11  2  1  0  0  0
 12 11  1  0  0  0
 13 12  2  0  0  0
 14 15  2  0  0  0
 14 13  1  0  0  0
 15 16  1  0  0  0
 16 11  2  0  0  0
 17 18  1  0  0  0
 19 28  1  0  0  0
 20 26  2  0  0  0
 22 14  1  0  0  0
 24  4  1  0  0  0
 26  8  1  0  0  0
 26 19  1  0  0  0
 26 21  2  0  0  0
 27 19  1  0  0  0
M  END
>  <CHROM.0>
-51.70115631,-94.46704123,-79.28467595,-72.30865447,-174.35781481

>  <CHROM.1>
157.66195364,-171.93209802,45.73109944,-136.29525249,-167.50715752,21.48748466
26.45851684,28.62019613,-1.01058702,1.19517773,2.62287699

>  <FORMUL>
      S58    C16 H11 Br1 F3 N3 O2 S1

>  <HET>
 S58  A 701      28

>  <HETNAM>
     S58 1-PHENYLSULFONAMIDE-3-TRIFLUOROMETHYL-5-PARABROMOPHENYL
   2 S58 PYRAZOLE

>  <Name>
S58.pdb

>  <RI>
0

>  <Rbt.Current_Directory>
/home/malgorzata/Desktop/rDOCK_IFD/test3/IFD

>  <Rbt.Executable>
rbdock ($Id: //depot/dev/client3/rdock/2013.1/src/exe/rbdock.cxx#4 $)

>  <Rbt.Library>
libRbt.so (2013.1, Build901 2013/11/27)

>  <Rbt.Parameter_File>
/home/malgorzata/Desktop/rDock_2013.1_src/data/scripts/hard_docking.prm

>  <Rbt.Receptor>
cavity.prm

>  <SCORE>
-16.0226

>  <SCORE.INTER>
-8.11869

>  <SCORE.INTER.CONST>
1

>  <SCORE.INTER.POLAR>
-1.0583

>  <SCORE.INTER.REPUL>
0.392674

>  <SCORE.INTER.ROT>
5

>  <SCORE.INTER.VDW>
-16.8838

>  <SCORE.INTER.norm>
-0.312257

>  <SCORE.INTRA>
-2.68018

>  <SCORE.INTRA.DIHEDRAL>
-8.08954

>  <SCORE.INTRA.DIHEDRAL.0>
18.1022

>  <SCORE.INTRA.POLAR>
0

>  <SCORE.INTRA.POLAR.0>
0

>  <SCORE.INTRA.REPUL>
0

>  <SCORE.INTRA.REPUL.0>
0

>  <SCORE.INTRA.VDW>
1.36458

>  <SCORE.INTRA.VDW.0>
-2.81782

>  <SCORE.INTRA.norm>
-0.103084

>  <SCORE.RESTR>
1.86291

>  <SCORE.RESTR.CAVITY>
1.86291

>  <SCORE.RESTR.norm>
0.0716503

>  <SCORE.SYSTEM>
-7.08668

>  <SCORE.SYSTEM.CONST>
0

>  <SCORE.SYSTEM.DIHEDRAL>
1.89351

>  <SCORE.SYSTEM.POLAR>
-1.63874

>  <SCORE.SYSTEM.REPUL>
0.0965951

>  <SCORE.SYSTEM.VDW>
-2.9447

>  <SCORE.SYSTEM.norm>
-0.272564

>  <SCORE.heavy>
26

>  <SCORE.norm>
-0.616256

$$$$
S58.pdb
  rDOCK(R)          3D
libRbt.so/2013.1/901 2013/11/27
 28 30  0  0  0  0  0  0  0  0999 V2000
   24.8403   29.8221   31.4344 C   0  0  0  0  0  0
   25.7171   29.9803   30.4046 C   0  0  0  0  0  0
   25.3680   28.6955   32.2576 C   0  0  0  0  0  0
   24.7468   28.0417   33.4556 C   0  0  0  0  0  0
   27.9706   29.0593   29.9483 C   0  0  0  0  0  0
   28.7799   27.9355   30.1578 C   0  0  0  0  0  0
   30.0136   27.8558   29.5292 C   0  0  0  0  0  0
   30.4356   28.9072   28.6833 C   0  0  0  0  0  0
   29.6207   30.0325   28.4744 C   0  0  0  0  0  0
   28.3812   30.1085   29.1142 C   0  0  0  0  0  0
   25.5500   30.9659   29.2930 C   0  0  0  0  0  0
   25.6464   30.5259   27.9483 C   0  0  0  0  0  0
   25.3438   31.4057   26.8925 C   0  0  0  0  0  0
   24.9438   32.7102   27.1696 C   0  0  0  0  0  0
   24.8760   33.1599   28.4928 C   0  0  0  0  0  0
   25.1787   32.2848   29.5625 C   0  0  0  0  0  0
   26.7354   29.0647   30.5430 N   0  0  0  0  0  0
   26.4858   28.2909   31.7188 N   0  0  0  0  0  0
   33.0978   30.0220   28.5502 N   0  0  0  0  0  0
   31.8585   29.0141   26.4406 O   0  0  0  0  0  0
   32.5850   27.4920   28.0664 O   0  0  0  0  0  0
   24.3457   33.7859   25.7937 Br  0  0  0  0  0  0
   25.0705   26.7245   33.4673 F   0  0  0  0  0  0
   23.4174   28.2264   33.4393 F   0  0  0  0  0  0
   25.2548   28.6199   34.5496 F   0  0  0  0  0  0
   32.0499   28.8054   27.8410 S   0  0  0  0  0  0
   32.7167   30.7146   29.1249 H   0  0  0  0  0  0
   34.0630   30.0060   28.3730 H   0  0  0  0  0  0
  1  3  1  0  0  0
  2  1  2  0  0  0
  2 17  1  0  0  0
  3 18  2  0  0  0
  3  4  1  0  0  0
  4 23  1  0  0  0
  4 25  1  0  0  0
  5 17  1  0  0  0
  5  6  2  0  0  0
  7  6  1  0  0  0
  8  7  2  0  0  0
  9 10  2  0  0  0
  9  8  1  0  0  0
 10  5  1  0  0  0
 11  2  1  0  0  0
 12 11  1  0  0  0
 13 12  2  0  0  0
 14 15  2  0  0  0
 14 13  1  0  0  0
 15 16  1  0  0  0
 16 11  2  0  0  0
 17 18  1  0  0  0
 19 28  1  0  0  0
 20 26  2  0  0  0
 22 14  1  0  0  0
 24  4  1  0  0  0
 26  8  1  0  0  0
 26 19  1  0  0  0
 26 21  2  0  0  0
 27 19  1  0  0  0
M  END
>  <CHROM.0>
-56.48754822,-167.16154243,-67.28927948,-71.86629087,-177.42733091

>  <CHROM.1>
146.61794886,-173.86844689,-128.41468104,-111.34847548,-12.88126345,27.02464281
30.15958477,29.19006324,2.45173056,0.36206756,-0.93237482

>  <FORMUL>
      S58    C16 H11 Br1 F3 N3 O2 S1

>  <HET>
 S58  A 701      28

>  <HETNAM>
     S58 1-PHENYLSULFONAMIDE-3-TRIFLUOROMETHYL-5-PARABROMOPHENYL
   2 S58 PYRAZOLE

>  <Name>
S58.pdb

>  <RI>
0

>  <Rbt.Current_Directory>
/home/malgorzata/Desktop/rDOCK_IFD/test3/IFD

>  <Rbt.Executable>
rbdock ($Id: //depot/dev/client3/rdock/2013.1/src/exe/rbdock.cxx#4 $)

>  <Rbt.Library>
libRbt.so (2013.1, Build901 2013/11/27)

>  <Rbt.Parameter_File>
/home/malgorzata/Desktop/rDock_2013.1_src/data/scripts/hard_docking.prm

>  <Rbt.Receptor>
cavity.prm

>  <SCORE>
-17.7982

>  <SCORE.INTER>
-7.72124

>  <SCORE.INTER.CONST>
1

>  <SCORE.INTER.POLAR>
-0.916515

>  <SCORE.INTER.REPUL>
0

>  <SCORE.INTER.ROT>
5

>  <SCORE.INTER.VDW>
-15.0051

>  <SCORE.INTER.norm>
-0.296971

>  <SCORE.INTRA>
-2.75416

>  <SCORE.INTRA.DIHEDRAL>
-6.99849

>  <SCORE.INTRA.DIHEDRAL.0>
18.1022

>  <SCORE.INTRA.POLAR>
0

>  <SCORE.INTRA.POLAR.0>
0

>  <SCORE.INTRA.REPUL>
0

>  <SCORE.INTRA.REPUL.0>
0

>  <SCORE.INTRA.VDW>
0.745081

>  <SCORE.INTRA.VDW.0>
-2.81782

>  <SCORE.INTRA.norm>
-0.105929

>  <SCORE.RESTR>
0

>  <SCORE.RESTR.CAVITY>
0

>  <SCORE.RESTR.norm>
0

>  <SCORE.SYSTEM>
-7.32278

>  <SCORE.SYSTEM.CONST>
0

>  <SCORE.SYSTEM.DIHEDRAL>
1.52736

>  <SCORE.SYSTEM.POLAR>
-1.63568

>  <SCORE.SYSTEM.REPUL>
0.0839905

>  <SCORE.SYSTEM.VDW>
-2.9451

>  <SCORE.SYSTEM.norm>
-0.281646

>  <SCORE.heavy>
26

>  <SCORE.norm>
-0.684546

$$$$
S58.pdb
  rDOCK(R)          3D
libRbt.so/2013.1/901 2013/11/27
 28 30  0  0  0  0  0  0  0  0999 V2000
   22.7369   26.4212   29.9446 C   0  0  0  0  0  0
   22.5854   27.3220   28.9347 C   0  0  0  0  0  0
   23.7142   27.0262   30.8954 C   0  0  0  0  0  0
   24.3119   26.4235   32.1316 C   0  0  0  0  0  0
   23.2964   29.6777   28.6517 C   0  0  0  0  0  0
   24.5045   30.2999   28.3122 C   0  0  0  0  0  0
   24.4832   31.5440   27.6997 C   0  0  0  0  0  0
   23.2434   32.1652   27.4233 C   0  0  0  0  0  0
   22.0335   31.5377   27.7642 C   0  0  0  0  0  0
   22.0623   30.2866   28.3850 C   0  0  0  0  0  0
   21.7365   27.1030   27.7237 C   0  0  0  0  0  0
   21.7591   28.0548   26.6728 C   0  0  0  0  0  0
   21.0856   27.7920   25.4654 C   0  0  0  0  0  0
   20.3995   26.5916   25.3009 C   0  0  0  0  0  0
   20.3478   25.6614   26.3448 C   0  0  0  0  0  0
   21.0202   25.9150   27.5635 C   0  0  0  0  0  0
   23.3672   28.4232   29.2002 N   0  0  0  0  0  0
   24.0456   28.2033   30.4391 N   0  0  0  0  0  0
   24.7702   34.0507   25.8544 N   0  0  0  0  0  0
   22.9074   34.7974   27.5790 O   0  0  0  0  0  0
   22.1709   33.7657   25.6090 O   0  0  0  0  0  0
   19.7031   26.1659   23.6452 Br  0  0  0  0  0  0
   23.5145   26.6949   33.1948 F   0  0  0  0  0  0
   25.5570   26.8913   32.3122 F   0  0  0  0  0  0
   24.3639   25.0980   31.9593 F   0  0  0  0  0  0
   23.2045   33.7947   26.6054 S   0  0  0  0  0  0
   25.2704   33.2875   25.5040 H   0  0  0  0  0  0
   25.1415   34.9564   25.7837 H   0  0  0  0  0  0
  1  3  1  0  0  0
  2  1  2  0  0  0
  2 17  1  0  0  0
  3 18  2  0  0  0
  3  4  1  0  0  0
  4 23  1  0  0  0
  4 25  1  0  0  0
  5 17  1  0  0  0
  5  6  2  0  0  0
  7  6  1  0  0  0
  8  7  2  0  0  0
  9 10  2  0  0  0
  9  8  1  0  0  0
 10  5  1  0  0  0
 11  2  1  0  0  0
 12 11  1  0  0  0
 13 12  2  0  0  0
 14 15  2  0  0  0
 14 13  1  0  0  0
 15 16  1  0  0  0
 16 11  2  0  0  0
 17 18  1  0  0  0
 19 28  1  0  0  0
 20 26  2  0  0  0
 22 14  1  0  0  0
 24  4  1  0  0  0
 26  8  1  0  0  0
 26 19  1  0  0  0
 26 21  2  0  0  0
 27 19  1  0  0  0
M  END
>  <CHROM.0>
-56.66801447,161.64793407,-57.01944632,-72.06531288,8.63966205

>  <CHROM.1>
-89.14531589,-137.55451633,-173.70721441,17.95390336,32.45696651,22.44064345
28.71842446,27.65272456,0.31018067,1.01213609,2.65993693

>  <FORMUL>
      S58    C16 H11 Br1 F3 N3 O2 S1

>  <HET>
 S58  A 701      28

>  <HETNAM>
     S58 1-PHENYLSULFONAMIDE-3-TRIFLUOROMETHYL-5-PARABROMOPHENYL
   2 S58 PYRAZOLE

>  <Name>
S58.pdb

>  <RI>
0

>  <Rbt.Current_Directory>
/home/malgorzata/Desktop/rDOCK_IFD/test3/IFD

>  <Rbt.Executable>
rbdock ($Id: //depot/dev/client3/rdock/2013.1/src/exe/rbdock.cxx#4 $)

>  <Rbt.Library>
libRbt.so (2013.1, Build901 2013/11/27)

>  <Rbt.Parameter_File>
/home/malgorzata/Desktop/rDock_2013.1_src/data/scripts/hard_docking.prm

>  <Rbt.Receptor>
cavity.prm

>  <SCORE>
-17.2035

>  <SCORE.INTER>
-7.73743

>  <SCORE.INTER.CONST>
1

>  <SCORE.INTER.POLAR>
-1.45184

>  <SCORE.INTER.REPUL>
0

>  <SCORE.INTER.ROT>
5

>  <SCORE.INTER.VDW>
-13.2012

>  <SCORE.INTER.norm>
-0.297593

>  <SCORE.INTRA>
-2.53594

>  <SCORE.INTRA.DIHEDRAL>
-7.42293

>  <SCORE.INTRA.DIHEDRAL.0>
18.1022

>  <SCORE.INTRA.POLAR>
0

>  <SCORE.INTRA.POLAR.0>
0

>  <SCORE.INTRA.REPUL>
0

>  <SCORE.INTRA.REPUL.0>
0

>  <SCORE.INTRA.VDW>
1.17552

>  <SCORE.INTRA.VDW.0>
-2.81782

>  <SCORE.INTRA.norm>
-0.0975362

>  <SCORE.RESTR>
0.0367466

>  <SCORE.RESTR.CAVITY>
0.0367466

>  <SCORE.RESTR.norm>
0.00141333

>  <SCORE.SYSTEM>
-6.96687

>  <SCORE.SYSTEM.CONST>
0

>  <SCORE.SYSTEM.DIHEDRAL>
1.66378

>  <SCORE.SYSTEM.POLAR>
-1.63583

>  <SCORE.SYSTEM.REPUL>
0.0834112

>  <SCORE.SYSTEM.VDW>
-2.654

>  <SCORE.SYSTEM.norm>
-0.267957

>  <SCORE.heavy>
26

>  <SCORE.norm>
-0.661673

$$$$
S58.pdb
  rDOCK(R)          3D
libRbt.so/2013.1/901 2013/11/27
 28 30  0  0  0  0  0  0  0  0999 V2000
   25.9841   31.4991   28.5404 C   0  0  0  0  0  0
   24.9463   30.7479   28.0788 C   0  0  0  0  0  0
   26.4993   30.7941   29.7499 C   0  0  0  0  0  0
   27.5730   31.2316   30.7008 C   0  0  0  0  0  0
   24.1234   28.4795   28.6377 C   0  0  0  0  0  0
   23.4171   27.9052   29.7021 C   0  0  0  0  0  0
   22.6665   26.7595   29.4842 C   0  0  0  0  0  0
   22.6215   26.1895   28.1911 C   0  0  0  0  0  0
   23.3303   26.7689   27.1253 C   0  0  0  0  0  0
   24.0881   27.9203   27.3527 C   0  0  0  0  0  0
   24.0912   31.1121   26.9079 C   0  0  0  0  0  0
   24.5465   32.0898   25.9870 C   0  0  0  0  0  0
   23.8273   32.3355   24.8027 C   0  0  0  0  0  0
   22.6683   31.6129   24.5323 C   0  0  0  0  0  0
   22.1969   30.6685   25.4508 C   0  0  0  0  0  0
   22.9110   30.4135   26.6453 C   0  0  0  0  0  0
   24.8018   29.6441   28.8884 N   0  0  0  0  0  0
   25.7983   29.7050   29.9115 N   0  0  0  0  0  0
   22.2916   23.8833   26.4821 N   0  0  0  0  0  0
   20.2620   25.0694   27.6971 O   0  0  0  0  0  0
   21.7350   23.8480   29.0486 O   0  0  0  0  0  0
   21.8541   31.7897   22.8849 Br  0  0  0  0  0  0
   27.1589   31.0192   31.9749 F   0  0  0  0  0  0
   27.8767   32.5212   30.4856 F   0  0  0  0  0  0
   28.6573   30.4829   30.4697 F   0  0  0  0  0  0
   21.6261   24.6911   27.8912 S   0  0  0  0  0  0
   21.9914   24.1415   25.5885 H   0  0  0  0  0  0
   22.9644   23.1770   26.5900 H   0  0  0  0  0  0
  1  3  1  0  0  0
  2  1  2  0  0  0
  2 17  1  0  0  0
  3 18  2  0  0  0
  3  4  1  0  0  0
  4 23  1  0  0  0
  4 25  1  0  0  0
  5 17  1  0  0  0
  5  6  2  0  0  0
  7  6  1  0  0  0
  8  7  2  0  0  0
  9 10  2  0  0  0
  9  8  1  0  0  0
 10  5  1  0  0  0
 11  2  1  0  0  0
 12 11  1  0  0  0
 13 12  2  0  0  0
 14 15  2  0  0  0
 14 13  1  0  0  0
 15 16  1  0  0  0
 16 11  2  0  0  0
 17 18  1  0  0  0
 19 28  1  0  0  0
 20 26  2  0  0  0
 22 14  1  0  0  0
 24  4  1  0  0  0
 26  8  1  0  0  0
 26 19  1  0  0  0
 26 21  2  0  0  0
 27 19  1  0  0  0
M  END
>  <CHROM.0>
-57.53452619,-138.23198455,90.53546827,-71.82319939,2.62884714

>  <CHROM.1>
135.21285448,-141.39630369,17.27891807,-156.34161827,-86.57640545,23.78217476
29.37021420,27.33473073,-0.36298981,-0.81234411,-0.63920043

>  <FORMUL>
      S58    C16 H11 Br1 F3 N3 O2 S1

>  <HET>
 S58  A 701      28

>  <HETNAM>
     S58 1-PHENYLSULFONAMIDE-3-TRIFLUOROMETHYL-5-PARABROMOPHENYL
   2 S58 PYRAZOLE

>  <Name>
S58.pdb

>  <RI>
0

>  <Rbt.Current_Directory>
/home/malgorzata/Desktop/rDOCK_IFD/test3/IFD

>  <Rbt.Executable>
rbdock ($Id: //depot/dev/client3/rdock/2013.1/src/exe/rbdock.cxx#4 $)

>  <Rbt.Library>
libRbt.so (2013.1, Build901 2013/11/27)

>  <Rbt.Parameter_File>
/home/malgorzata/Desktop/rDock_2013.1_src/data/scripts/hard_docking.prm

>  <Rbt.Receptor>
cavity.prm

>  <SCORE>
-16.0303

>  <SCORE.INTER>
-7.37469

>  <SCORE.INTER.CONST>
1

>  <SCORE.INTER.POLAR>
0

>  <SCORE.INTER.REPUL>
0

>  <SCORE.INTER.ROT>
5

>  <SCORE.INTER.VDW>
-17.7747

>  <SCORE.INTER.norm>
-0.283642

>  <SCORE.INTRA>
-2.73863

>  <SCORE.INTRA.DIHEDRAL>
-7.59951

>  <SCORE.INTRA.DIHEDRAL.0>
18.1022

>  <SCORE.INTRA.POLAR>
0

>  <SCORE.INTRA.POLAR.0>
0

>  <SCORE.INTRA.REPUL>
0

>  <SCORE.INTRA.REPUL.0>
0

>  <SCORE.INTRA.VDW>
1.06113

>  <SCORE.INTRA.VDW.0>
-2.81782

>  <SCORE.INTRA.norm>
-0.105332

>  <SCORE.RESTR>
1.08689

>  <SCORE.RESTR.CAVITY>
1.08689

>  <SCORE.RESTR.norm>
0.0418036

>  <SCORE.SYSTEM>
-7.00389

>  <SCORE.SYSTEM.CONST>
0

>  <SCORE.SYSTEM.DIHEDRAL>
1.51792

>  <SCORE.SYSTEM.POLAR>
-1.62469

>  <SCORE.SYSTEM.REPUL>
0.0810711

>  <SCORE.SYSTEM.VDW>
-2.64425

>  <SCORE.SYSTEM.norm>
-0.26938

>  <SCORE.heavy>
26

>  <SCORE.norm>
-0.61655

$$$$
S58.pdb
  rDOCK(R)          3D
libRbt.so/2013.1/901 2013/11/27
 28 30  0  0  0  0  0  0  0  0999 V2000
   24.4072   32.4214   30.9619 C   0  0  0  0  0  0
   25.6518   32.2064   30.4531 C   0  0  0  0  0  0
   23.6224   31.1865   30.6713 C   0  0  0  0  0  0
   22.1691   30.9203   30.9270 C   0  0  0  0  0  0
   26.7901   30.1923   29.5682 C   0  0  0  0  0  0
   26.7236   29.4489   28.3830 C   0  0  0  0  0  0
   27.8281   28.7169   27.9734 C   0  0  0  0  0  0
   29.0062   28.7340   28.7549 C   0  0  0  0  0  0
   29.0698   29.4818   29.9426 C   0  0  0  0  0  0
   27.9521   30.2132   30.3518 C   0  0  0  0  0  0
   26.7583   33.2116   30.4665 C   0  0  0  0  0  0
   26.7111   34.2910   31.3850 C   0  0  0  0  0  0
   27.8117   35.1582   31.5150 C   0  0  0  0  0  0
   28.9520   34.9523   30.7431 C   0  0  0  0  0  0
   28.9938   33.9076   29.8132 C   0  0  0  0  0  0
   27.8929   33.0299   29.6730 C   0  0  0  0  0  0
   25.6945   30.9468   29.8999 N   0  0  0  0  0  0
   24.4114   30.3395   30.0682 N   0  0  0  0  0  0
   30.7407   28.1443   26.5208 N   0  0  0  0  0  0
   30.2291   26.3950   28.4393 O   0  0  0  0  0  0
   31.5894   28.2163   29.0053 O   0  0  0  0  0  0
   30.4632   35.9600   31.0727 Br  0  0  0  0  0  0
   21.4840   32.0905   30.8874 F   0  0  0  0  0  0
   22.0190   30.2965   32.1060 F   0  0  0  0  0  0
   21.7186   30.1242   29.9510 F   0  0  0  0  0  0
   30.4685   27.7860   28.2175 S   0  0  0  0  0  0
   31.6460   28.3332   26.2044 H   0  0  0  0  0  0
   29.9879   28.1524   25.8912 H   0  0  0  0  0  0
  1  3  1  0  0  0
  2  1  2  0  0  0
  2 17  1  0  0  0
  3 18  2  0  0  0
  3  4  1  0  0  0
  4 23  1  0  0  0
  4 25  1  0  0  0
  5 17  1  0  0  0
  5  6  2  0  0  0
  7  6  1  0  0  0
  8  7  2  0  0  0
  9 10  2  0  0  0
  9  8  1  0  0  0
 10  5  1  0  0  0
 11  2  1  0  0  0
 12 11  1  0  0  0
 13 12  2  0  0  0
 14 15  2  0  0  0
 14 13  1  0  0  0
 15 16  1  0  0  0
 16 11  2  0  0  0
 17 18  1  0  0  0
 19 28  1  0  0  0
 20 26  2  0  0  0
 22 14  1  0  0  0
 24  4  1  0  0  0
 26  8  1  0  0  0
 26 19  1  0  0  0
 26 21  2  0  0  0
 27 19  1  0  0  0
M  END
>  <CHROM.0>
-56.24891337,-83.30306994,-70.42040632,-71.91225468,-174.88539007

>  <CHROM.1>
28.29976089,-140.82217126,20.30451488,47.88056574,135.20798470,27.45557964
31.58926668,30.01228114,2.84793015,-0.18183665,-2.79517706

>  <FORMUL>
      S58    C16 H11 Br1 F3 N3 O2 S1

>  <HET>
 S58  A 701      28

>  <HETNAM>
     S58 1-PHENYLSULFONAMIDE-3-TRIFLUOROMETHYL-5-PARABROMOPHENYL
   2 S58 PYRAZOLE

>  <Name>
S58.pdb

>  <RI>
0

>  <Rbt.Current_Directory>
/home/malgorzata/Desktop/rDOCK_IFD/test3/IFD

>  <Rbt.Executable>
rbdock ($Id: //depot/dev/client3/rdock/2013.1/src/exe/rbdock.cxx#4 $)

>  <Rbt.Library>
libRbt.so (2013.1, Build901 2013/11/27)

>  <Rbt.Parameter_File>
/home/malgorzata/Desktop/rDock_2013.1_src/data/scripts/hard_docking.prm

>  <Rbt.Receptor>
cavity.prm

>  <SCORE>
-11.7062

>  <SCORE.INTER>
-1.64376

>  <SCORE.INTER.CONST>
1

>  <SCORE.INTER.POLAR>
-0.238254

>  <SCORE.INTER.REPUL>
0.0209223

>  <SCORE.INTER.ROT>
5

>  <SCORE.INTER.VDW>
-11.3383

>  <SCORE.INTER.norm>
-0.0632214

>  <SCORE.INTRA>
-2.79577

>  <SCORE.INTRA.DIHEDRAL>
-7.13656

>  <SCORE.INTRA.DIHEDRAL.0>
18.1022

>  <SCORE.INTRA.POLAR>
0

>  <SCORE.INTRA.POLAR.0>
0

>  <SCORE.INTRA.REPUL>
0

>  <SCORE.INTRA.REPUL.0>
0

>  <SCORE.INTRA.VDW>
0.772511

>  <SCORE.INTRA.VDW.0>
-2.81782

>  <SCORE.INTRA.norm>
-0.10753

>  <SCORE.RESTR>
0

>  <SCORE.RESTR.CAVITY>
0

>  <SCORE.RESTR.norm>
0

>  <SCORE.SYSTEM>
-7.26663

>  <SCORE.SYSTEM.CONST>
0

>  <SCORE.SYSTEM.DIHEDRAL>
1.58143

>  <SCORE.SYSTEM.POLAR>
-1.63789

>  <SCORE.SYSTEM.REPUL>
0.0846356

>  <SCORE.SYSTEM.VDW>
-2.91169

>  <SCORE.SYSTEM.norm>
-0.279486

>  <SCORE.heavy>
26

>  <SCORE.norm>
-0.450237

$$$$
S58.pdb
  rDOCK(R)          3D
libRbt.so/2013.1/901 2013/11/27
 28 30  0  0  0  0  0  0  0  0999 V2000
   28.6566   28.3973   30.6473 C   0  0  0  0  0  0
   27.4548   29.0087   30.4571 C   0  0  0  0  0  0
   29.2961   28.3146   29.3022 C   0  0  0  0  0  0
   30.5853   27.6516   28.9189 C   0  0  0  0  0  0
   26.4515   30.1993   28.5307 C   0  0  0  0  0  0
   26.3801   31.4914   29.0666 C   0  0  0  0  0  0
   25.5607   32.4354   28.4658 C   0  0  0  0  0  0
   24.8122   32.0822   27.3195 C   0  0  0  0  0  0
   24.8871   30.7855   26.7838 C   0  0  0  0  0  0
   25.7109   29.8381   27.3966 C   0  0  0  0  0  0
   26.4456   29.2480   31.5338 C   0  0  0  0  0  0
   26.7823   28.9668   32.8824 C   0  0  0  0  0  0
   25.9030   29.3258   33.9209 C   0  0  0  0  0  0
   24.7016   29.9635   33.6233 C   0  0  0  0  0  0
   24.3495   30.2166   32.2930 C   0  0  0  0  0  0
   25.2249   29.8594   31.2404 C   0  0  0  0  0  0
   27.3203   29.3197   29.1230 N   0  0  0  0  0  0
   28.4966   28.8806   28.4396 N   0  0  0  0  0  0
   24.7519   34.2812   25.4464 N   0  0  0  0  0  0
   23.1153   34.1184   27.5193 O   0  0  0  0  0  0
   22.7432   32.6183   25.7589 O   0  0  0  0  0  0
   23.6593   30.6195   34.9984 Br  0  0  0  0  0  0
   31.3070   27.3917   30.0377 F   0  0  0  0  0  0
   31.2625   28.4304   28.0607 F   0  0  0  0  0  0
   30.2898   26.4935   28.3182 F   0  0  0  0  0  0
   23.7428   33.3204   26.5139 S   0  0  0  0  0  0
   25.6145   33.9305   25.1491 H   0  0  0  0  0  0
   24.4510   35.1660   25.1467 H   0  0  0  0  0  0
  1  3  1  0  0  0
  2  1  2  0  0  0
  2 17  1  0  0  0
  3 18  2  0  0  0
  3  4  1  0  0  0
  4 23  1  0  0  0
  4 25  1  0  0  0
  5 17  1  0  0  0
  5  6  2  0  0  0
  7  6  1  0  0  0
  8  7  2  0  0  0
  9 10  2  0  0  0
  9  8  1  0  0  0
 10  5  1  0  0  0
 11  2  1  0  0  0
 12 11  1  0  0  0
 13 12  2  0  0  0
 14 15  2  0  0  0
 14 13  1  0  0  0
 15 16  1  0  0  0
 16 11  2  0  0  0
 17 18  1  0  0  0
 19 28  1  0  0  0
 20 26  2  0  0  0
 22 14  1  0  0  0
 24  4  1  0  0  0
 26  8  1  0  0  0
 26 19  1  0  0  0
 26 21  2  0  0  0
 27 19  1  0  0  0
M  END
>  <CHROM.0>
-57.29032810,127.96006990,-76.44049839,-72.31968168,0.64508692

>  <CHROM.1>
-15.25066488,50.10259471,7.30924362,83.09192238,20.10595892,26.10000254,30.30565015
30.07984171,-0.92173826,-0.60483223,1.88561578

>  <FORMUL>
      S58    C16 H11 Br1 F3 N3 O2 S1

>  <HET>
 S58  A 701      28

>  <HETNAM>
     S58 1-PHENYLSULFONAMIDE-3-TRIFLUOROMETHYL-5-PARABROMOPHENYL
   2 S58 PYRAZOLE

>  <Name>
S58.pdb

>  <RI>
0

>  <Rbt.Current_Directory>
/home/malgorzata/Desktop/rDOCK_IFD/test3/IFD

>  <Rbt.Executable>
rbdock ($Id: //depot/dev/client3/rdock/2013.1/src/exe/rbdock.cxx#4 $)

>  <Rbt.Library>
libRbt.so (2013.1, Build901 2013/11/27)

>  <Rbt.Parameter_File>
/home/malgorzata/Desktop/rDock_2013.1_src/data/scripts/hard_docking.prm

>  <Rbt.Receptor>
cavity.prm

>  <SCORE>
-19.1093

>  <SCORE.INTER>
-9.91625

>  <SCORE.INTER.CONST>
1

>  <SCORE.INTER.POLAR>
-2.28172

>  <SCORE.INTER.REPUL>
0.0129333

>  <SCORE.INTER.ROT>
5

>  <SCORE.INTER.VDW>
-12.6231

>  <SCORE.INTER.norm>
-0.381394

>  <SCORE.INTRA>
-2.23412

>  <SCORE.INTRA.DIHEDRAL>
-5.79098

>  <SCORE.INTRA.DIHEDRAL.0>
18.1022

>  <SCORE.INTRA.POLAR>
0

>  <SCORE.INTRA.POLAR.0>
0

>  <SCORE.INTRA.REPUL>
0

>  <SCORE.INTRA.REPUL.0>
0

>  <SCORE.INTRA.VDW>
0.661371

>  <SCORE.INTRA.VDW.0>
-2.81782

>  <SCORE.INTRA.norm>
-0.0859277

>  <SCORE.RESTR>
0

>  <SCORE.RESTR.CAVITY>
0

>  <SCORE.RESTR.norm>
0

>  <SCORE.SYSTEM>
-6.95895

>  <SCORE.SYSTEM.CONST>
0

>  <SCORE.SYSTEM.DIHEDRAL>
1.5491

>  <SCORE.SYSTEM.POLAR>
-1.6316

>  <SCORE.SYSTEM.REPUL>
0.0815633

>  <SCORE.SYSTEM.VDW>
-2.59387

>  <SCORE.SYSTEM.norm>
-0.267652

>  <SCORE.heavy>
26

>  <SCORE.norm>
-0.734974

$$$$
S58.pdb
  rDOCK(R)          3D
libRbt.so/2013.1/901 2013/11/27
 28 30  0  0  0  0  0  0  0  0999 V2000
   22.8363   29.7031   26.5314 C   0  0  0  0  0  0
   22.8994   28.8860   27.6189 C   0  0  0  0  0  0
   22.0267   28.9739   25.5125 C   0  0  0  0  0  0
   21.7243   29.3720   24.0988 C   0  0  0  0  0  0
   21.7119   26.8021   28.2371 C   0  0  0  0  0  0
   21.8373   25.4556   27.8725 C   0  0  0  0  0  0
   21.4282   24.4680   28.7561 C   0  0  0  0  0  0
   20.8942   24.8333   30.0133 C   0  0  0  0  0  0
   20.7709   26.1850   30.3763 C   0  0  0  0  0  0
   21.1807   27.1748   29.4796 C   0  0  0  0  0  0
   23.6664   29.1915   28.8652 C   0  0  0  0  0  0
   24.1553   30.5051   29.0809 C   0  0  0  0  0  0
   24.7460   30.8470   30.3116 C   0  0  0  0  0  0
   24.8460   29.8940   31.3217 C   0  0  0  0  0  0
   24.3934   28.5879   31.1048 C   0  0  0  0  0  0
   23.7985   28.2321   29.8713 C   0  0  0  0  0  0
   22.1852   27.7393   27.3555 N   0  0  0  0  0  0
   21.6466   27.8398   26.0352 N   0  0  0  0  0  0
   21.7092   23.2305   32.2748 N   0  0  0  0  0  0
   19.9876   22.3742   30.4568 O   0  0  0  0  0  0
   19.2371   24.0432   31.9194 O   0  0  0  0  0  0
   25.4243   30.4077   32.9978 Br  0  0  0  0  0  0
   22.8871   29.5741   23.4302 F   0  0  0  0  0  0
   20.9484   30.4672   24.0883 F   0  0  0  0  0  0
   21.0639   28.3632   23.5195 F   0  0  0  0  0  0
   20.3665   23.5419   31.1878 S   0  0  0  0  0  0
   21.7874   23.7380   33.1064 H   0  0  0  0  0  0
   22.3777   22.5479   32.0504 H   0  0  0  0  0  0
  1  3  1  0  0  0
  2  1  2  0  0  0
  2 17  1  0  0  0
  3 18  2  0  0  0
  3  4  1  0  0  0
  4 23  1  0  0  0
  4 25  1  0  0  0
  5 17  1  0  0  0
  5  6  2  0  0  0
  7  6  1  0  0  0
  8  7  2  0  0  0
  9 10  2  0  0  0
  9  8  1  0  0  0
 10  5  1  0  0  0
 11  2  1  0  0  0
 12 11  1  0  0  0
 13 12  2  0  0  0
 14 15  2  0  0  0
 14 13  1  0  0  0
 15 16  1  0  0  0
 16 11  2  0  0  0
 17 18  1  0  0  0
 19 28  1  0  0  0
 20 26  2  0  0  0
 22 14  1  0  0  0
 24  4  1  0  0  0
 26  8  1  0  0  0
 26 19  1  0  0  0
 26 21  2  0  0  0
 27 19  1  0  0  0
M  END
>  <CHROM.0>
-57.15435734,-79.28410115,-78.93862124,-71.84402546,-174.43196328

>  <CHROM.1>
56.41682451,-138.26362890,13.17919567,94.48276043,90.47139206,22.57362576
27.79791081,29.19687037,-2.06368884,0.94389415,2.05315176

>  <FORMUL>
      S58    C16 H11 Br1 F3 N3 O2 S1

>  <HET>
 S58  A 701      28

>  <HETNAM>
     S58 1-PHENYLSULFONAMIDE-3-TRIFLUOROMETHYL-5-PARABROMOPHENYL
   2 S58 PYRAZOLE

>  <Name>
S58.pdb

>  <RI>
0

>  <Rbt.Current_Directory>
/home/malgorzata/Desktop/rDOCK_IFD/test3/IFD

>  <Rbt.Executable>
rbdock ($Id: //depot/dev/client3/rdock/2013.1/src/exe/rbdock.cxx#4 $)

>  <Rbt.Library>
libRbt.so (2013.1, Build901 2013/11/27)

>  <Rbt.Parameter_File>
/home/malgorzata/Desktop/rDock_2013.1_src/data/scripts/hard_docking.prm

>  <Rbt.Receptor>
cavity.prm

>  <SCORE>
-12.2938

>  <SCORE.INTER>
-3.08008

>  <SCORE.INTER.CONST>
1

>  <SCORE.INTER.POLAR>
-0.276004

>  <SCORE.INTER.REPUL>
0

>  <SCORE.INTER.ROT>
5

>  <SCORE.INTER.VDW>
-12.5417

>  <SCORE.INTER.norm>
-0.118465

>  <SCORE.INTRA>
-2.50297

>  <SCORE.INTRA.DIHEDRAL>
-7.20946

>  <SCORE.INTRA.DIHEDRAL.0>
18.1022

>  <SCORE.INTRA.POLAR>
0

>  <SCORE.INTRA.POLAR.0>
0

>  <SCORE.INTRA.REPUL>
0

>  <SCORE.INTRA.REPUL.0>
0

>  <SCORE.INTRA.VDW>
1.10176

>  <SCORE.INTRA.VDW.0>
-2.81782

>  <SCORE.INTRA.norm>
-0.096268

>  <SCORE.RESTR>
0.596585

>  <SCORE.RESTR.CAVITY>
0.596585

>  <SCORE.RESTR.norm>
0.0229456

>  <SCORE.SYSTEM>
-7.30735

>  <SCORE.SYSTEM.CONST>
0

>  <SCORE.SYSTEM.DIHEDRAL>
1.54461

>  <SCORE.SYSTEM.POLAR>
-1.6288

>  <SCORE.SYSTEM.REPUL>
0.0821347

>  <SCORE.SYSTEM.VDW>
-2.9524

>  <SCORE.SYSTEM.norm>
-0.281052

>  <SCORE.heavy>
26

>  <SCORE.norm>
-0.472839

$$$$
S58.pdb
  rDOCK(R)          3D
libRbt.so/2013.1/901 2013/11/27
 28 30  0  0  0  0  0  0  0  0999 V2000
   21.1295   25.3853   26.6047 C   0  0  0  0  0  0
   21.7043   26.4012   27.3060 C   0  0  0  0  0  0
   20.5479   26.0058   25.3791 C   0  0  0  0  0  0
   19.7206   25.3615   24.3073 C   0  0  0  0  0  0
   22.2062   28.7629   26.7532 C   0  0  0  0  0  0
   23.5935   28.7030   26.9359 C   0  0  0  0  0  0
   24.3212   29.8799   27.0305 C   0  0  0  0  0  0
   23.6538   31.1229   26.9376 C   0  0  0  0  0  0
   22.2622   31.1794   26.7532 C   0  0  0  0  0  0
   21.5347   29.9901   26.6632 C   0  0  0  0  0  0
   22.3602   26.2452   28.6403 C   0  0  0  0  0  0
   22.6491   27.3965   29.4161 C   0  0  0  0  0  0
   23.1262   27.2610   30.7331 C   0  0  0  0  0  0
   23.3102   25.9926   31.2771 C   0  0  0  0  0  0
   23.0562   24.8524   30.5069 C   0  0  0  0  0  0
   22.5770   24.9762   29.1814 C   0  0  0  0  0  0
   21.5392   27.5743   26.6052 N   0  0  0  0  0  0
   20.8234   27.2814   25.4030 N   0  0  0  0  0  0
   23.5760   33.9707   26.4560 N   0  0  0  0  0  0
   25.7986   32.5462   26.2744 O   0  0  0  0  0  0
   24.9393   32.8939   28.4258 O   0  0  0  0  0  0
   23.7296   25.8268   33.0672 Br  0  0  0  0  0  0
   20.3643   24.2616   23.8428 F   0  0  0  0  0  0
   19.4747   26.2444   23.3267 F   0  0  0  0  0  0
   18.5605   24.9825   24.8550 F   0  0  0  0  0  0
   24.6036   32.6760   27.0467 S   0  0  0  0  0  0
   23.3658   34.7268   27.0386 H   0  0  0  0  0  0
   23.2156   33.9375   25.5438 H   0  0  0  0  0  0
  1  3  1  0  0  0
  2  1  2  0  0  0
  2 17  1  0  0  0
  3 18  2  0  0  0
  3  4  1  0  0  0
  4 23  1  0  0  0
  4 25  1  0  0  0
  5 17  1  0  0  0
  5  6  2  0  0  0
  7  6  1  0  0  0
  8  7  2  0  0  0
  9 10  2  0  0  0
  9  8  1  0  0  0
 10  5  1  0  0  0
 11  2  1  0  0  0
 12 11  1  0  0  0
 13 12  2  0  0  0
 14 15  2  0  0  0
 14 13  1  0  0  0
 15 16  1  0  0  0
 16 11  2  0  0  0
 17 18  1  0  0  0
 19 28  1  0  0  0
 20 26  2  0  0  0
 22 14  1  0  0  0
 24  4  1  0  0  0
 26  8  1  0  0  0
 26 19  1  0  0  0
 26 21  2  0  0  0
 27 19  1  0  0  0
M  END
>  <CHROM.0>
-57.38602344,-80.61783764,-42.37743807,-72.14618223,2.79358487

>  <CHROM.1>
-52.63615166,42.77486891,-165.53748518,164.44872900,121.48359519,22.58762594
27.86930854,28.00883644,1.43232118,0.99014572,2.34195603

>  <FORMUL>
      S58    C16 H11 Br1 F3 N3 O2 S1

>  <HET>
 S58  A 701      28

>  <HETNAM>
     S58 1-PHENYLSULFONAMIDE-3-TRIFLUOROMETHYL-5-PARABROMOPHENYL
   2 S58 PYRAZOLE

>  <Name>
S58.pdb

>  <RI>
0

>  <Rbt.Current_Directory>
/home/malgorzata/Desktop/rDOCK_IFD/test3/IFD

>  <Rbt.Executable>
rbdock ($Id: //depot/dev/client3/rdock/2013.1/src/exe/rbdock.cxx#4 $)

>  <Rbt.Library>
libRbt.so (2013.1, Build901 2013/11/27)

>  <Rbt.Parameter_File>
/home/malgorzata/Desktop/rDock_2013.1_src/data/scripts/hard_docking.prm

>  <Rbt.Receptor>
cavity.prm

>  <SCORE>
-19.7786

>  <SCORE.INTER>
-10.471

>  <SCORE.INTER.CONST>
1

>  <SCORE.INTER.POLAR>
-1.55165

>  <SCORE.INTER.REPUL>
0

>  <SCORE.INTER.ROT>
5

>  <SCORE.INTER.VDW>
-15.5954

>  <SCORE.INTER.norm>
-0.40273

>  <SCORE.INTRA>
-2.80846

>  <SCORE.INTRA.DIHEDRAL>
-6.84648

>  <SCORE.INTRA.DIHEDRAL.0>
18.1022

>  <SCORE.INTRA.POLAR>
0

>  <SCORE.INTRA.POLAR.0>
0

>  <SCORE.INTRA.REPUL>
0

>  <SCORE.INTRA.REPUL.0>
0

>  <SCORE.INTRA.VDW>
0.614785

>  <SCORE.INTRA.VDW.0>
-2.81782

>  <SCORE.INTRA.norm>
-0.108018

>  <SCORE.RESTR>
0.318115

>  <SCORE.RESTR.CAVITY>
0.318115

>  <SCORE.RESTR.norm>
0.0122352

>  <SCORE.SYSTEM>
-6.81728

>  <SCORE.SYSTEM.CONST>
0

>  <SCORE.SYSTEM.DIHEDRAL>
1.5712

>  <SCORE.SYSTEM.POLAR>
-1.62935

>  <SCORE.SYSTEM.REPUL>
0.0813652

>  <SCORE.SYSTEM.VDW>
-2.46993

>  <SCORE.SYSTEM.norm>
-0.262203

>  <SCORE.heavy>
26

>  <SCORE.norm>
-0.760716

$$$$
