612.pdb
  rDOCK(R)          3D
libRbt.so/2013.1/901 2013/11/27
 23 24  0  0  0  0  0  0  0  0999 V2000
   -0.7614  -34.4133   26.4481 C   0  0  0  0  0  0
   -0.4701  -34.7313   27.9073 C   0  0  0  0  0  0
    0.4244  -33.6849   28.5185 C   0  0  0  0  0  0
    1.7231  -33.5558   27.7286 C   0  0  0  0  0  0
    1.4252  -33.2218   26.2726 C   0  0  0  0  0  0
    0.5387  -34.2873   25.6661 C   0  0  0  0  0  0
   -1.6849  -35.8578   25.8137 S   0  0  0  0  0  0
   -2.1124  -35.5437   24.0312 C   0  0  0  0  0  0
   -3.2620  -34.8493   23.6809 C   0  0  0  0  0  0
   -4.1182  -34.0284   24.6635 C   0  0  0  0  0  0
   -5.4489  -34.6529   25.0114 C   0  0  0  0  0  0
   -4.1950  -32.5778   24.3299 C   0  0  0  0  0  0
   -3.6098  -34.6970   22.2783 C   0  0  0  0  0  0
   -4.6314  -34.1472   21.8877 O   0  0  0  0  0  0
   -1.2675  -36.0814   23.0420 N   0  0  0  0  0  0
   -1.5507  -35.9457   21.6683 C   0  0  0  0  0  0
   -0.8130  -36.3908   20.7913 O   0  0  0  0  0  0
   -2.7196  -35.2646   21.3629 N   0  0  0  0  0  0
   -0.0013  -36.7807   23.3777 C   0  0  0  0  0  0
   -0.2369  -37.9735   24.1175 O   0  0  0  0  0  0
    0.9873  -38.5964   24.5185 C   0  0  0  0  0  0
    0.7926  -39.3979   25.7818 C   0  0  0  0  0  0
   -2.9438  -35.1722   20.4087 H   0  0  0  0  0  0
  1  2  1  0  0  0
  1  6  1  0  0  0
  1  7  1  0  0  0
  2  3  1  0  0  0
  3  4  1  0  0  0
  4  5  1  0  0  0
  5  6  1  0  0  0
  7  8  1  0  0  0
  8  9  2  0  0  0
  8 15  1  0  0  0
  9 10  1  0  0  0
  9 13  1  0  0  0
 10 11  1  0  0  0
 10 12  1  0  0  0
 13 14  2  0  0  0
 13 18  1  0  0  0
 15 16  1  0  0  0
 15 19  1  0  0  0
 16 17  2  0  0  0
 16 18  1  0  0  0
 18 23  1  0  0  0
 19 20  1  0  0  0
 20 21  1  0  0  0
 21 22  1  0  0  0
M  END
>  <CHROM.0>
150.73649370,86.35253877,-6.13737312

>  <CHROM.1>
179.04461459,-86.30833338,-107.78804691,64.18631241,-175.99961586,152.51617034
-1.41509089,-35.35950499,24.55296573,0.54629032,-0.62059337,0.89997549

>  <FORMUL>
      612    C16 H26 N2 O3 S1

>  <HET>
 612  A 999      22

>  <HETNAM>
     612 6-(cyclohexylsulfanyl)-1-(ethoxymethyl)-5-(1-methylethy
   2 612 l)pyrimidine-2,4(1H,3H)-dione

>  <HETSYN>
     612 TNK-6123

>  <Name>
612.pdb

>  <RI>
0

>  <Rbt.Current_Directory>
/home/malgorzata/Desktop/rDOCK_IFD/Wyniki/9_hiv_rt

>  <Rbt.Executable>
rbdock ($Id: //depot/dev/client3/rdock/2013.1/src/exe/rbdock.cxx#4 $)

>  <Rbt.Library>
libRbt.so (2013.1, Build901 2013/11/27)

>  <Rbt.Parameter_File>
/home/malgorzata/Desktop/rDock_2013.1_src/data/scripts/soft_docking.prm

>  <Rbt.Receptor>
cavity.prm

>  <SCORE>
-28.25

>  <SCORE.INTER>
-24.5406

>  <SCORE.INTER.CONST>
1

>  <SCORE.INTER.POLAR>
-0.656802

>  <SCORE.INTER.REPUL>
0

>  <SCORE.INTER.ROT>
6

>  <SCORE.INTER.VDW>
-33.7075

>  <SCORE.INTER.norm>
-1.11548

>  <SCORE.INTRA>
-0.263205

>  <SCORE.INTRA.DIHEDRAL>
-3.54988

>  <SCORE.INTRA.DIHEDRAL.0>
11.8882

>  <SCORE.INTRA.POLAR>
0

>  <SCORE.INTRA.POLAR.0>
0

>  <SCORE.INTRA.REPUL>
0

>  <SCORE.INTRA.REPUL.0>
0

>  <SCORE.INTRA.VDW>
0.446771

>  <SCORE.INTRA.VDW.0>
-3.04122

>  <SCORE.INTRA.norm>
-0.0119639

>  <SCORE.RESTR>
0

>  <SCORE.RESTR.CAVITY>
0

>  <SCORE.RESTR.norm>
0

>  <SCORE.SYSTEM>
-3.44614

>  <SCORE.SYSTEM.CONST>
0

>  <SCORE.SYSTEM.DIHEDRAL>
6.09448

>  <SCORE.SYSTEM.POLAR>
-1.01432

>  <SCORE.SYSTEM.VDW>
-3.0447

>  <SCORE.SYSTEM.norm>
-0.156643

>  <SCORE.heavy>
22

>  <SCORE.norm>
-1.28409

$$$$
612.pdb
  rDOCK(R)          3D
libRbt.so/2013.1/901 2013/11/27
 23 24  0  0  0  0  0  0  0  0999 V2000
    0.0344  -33.7077   27.1522 C   0  0  0  0  0  0
    0.9259  -34.1574   28.3002 C   0  0  0  0  0  0
    1.9800  -33.1242   28.6004 C   0  0  0  0  0  0
    2.8147  -32.8272   27.3584 C   0  0  0  0  0  0
    1.9183  -32.3624   26.2179 C   0  0  0  0  0  0
    0.8737  -33.4145   25.9163 C   0  0  0  0  0  0
   -1.0499  -35.1354   26.7944 S   0  0  0  0  0  0
   -1.2728  -35.2551   24.9519 C   0  0  0  0  0  0
   -0.4628  -36.0795   24.1834 C   0  0  0  0  0  0
    0.4620  -37.1709   24.7544 C   0  0  0  0  0  0
    1.8820  -37.1235   24.2412 C   0  0  0  0  0  0
   -0.1410  -38.5339   24.7525 C   0  0  0  0  0  0
   -0.6076  -36.0833   22.7376 C   0  0  0  0  0  0
    0.1020  -36.7387   21.9856 O   0  0  0  0  0  0
   -2.2491  -34.4405   24.3479 N   0  0  0  0  0  0
   -2.4413  -34.4212   22.9520 C   0  0  0  0  0  0
   -3.3030  -33.7318   22.4100 O   0  0  0  0  0  0
   -1.5966  -35.2425   22.2203 N   0  0  0  0  0  0
   -3.1708  -33.5891   25.1419 C   0  0  0  0  0  0
   -4.1388  -34.3657   25.8386 O   0  0  0  0  0  0
   -5.4727  -33.9909   25.4815 C   0  0  0  0  0  0
   -6.4489  -34.3892   26.5607 C   0  0  0  0  0  0
   -1.7042  -35.2321   21.2418 H   0  0  0  0  0  0
  1  2  1  0  0  0
  1  6  1  0  0  0
  1  7  1  0  0  0
  2  3  1  0  0  0
  3  4  1  0  0  0
  4  5  1  0  0  0
  5  6  1  0  0  0
  7  8  1  0  0  0
  8  9  2  0  0  0
  8 15  1  0  0  0
  9 10  1  0  0  0
  9 13  1  0  0  0
 10 11  1  0  0  0
 10 12  1  0  0  0
 13 14  2  0  0  0
 13 18  1  0  0  0
 15 16  1  0  0  0
 15 19  1  0  0  0
 16 17  2  0  0  0
 16 18  1  0  0  0
 18 23  1  0  0  0
 19 20  1  0  0  0
 20 21  1  0  0  0
 21 22  1  0  0  0
M  END
>  <CHROM.0>
-171.91735051,48.45706579,-172.90920551

>  <CHROM.1>
-141.41181012,94.45758938,-130.06705914,-71.30421896,-122.09128599,-157.58916589
-1.01178360,-34.83191382,25.21128120,0.37753656,-0.18008278,0.96415748

>  <FORMUL>
      612    C16 H26 N2 O3 S1

>  <HET>
 612  A 999      22

>  <HETNAM>
     612 6-(cyclohexylsulfanyl)-1-(ethoxymethyl)-5-(1-methylethy
   2 612 l)pyrimidine-2,4(1H,3H)-dione

>  <HETSYN>
     612 TNK-6123

>  <Name>
612.pdb

>  <RI>
0

>  <Rbt.Current_Directory>
/home/malgorzata/Desktop/rDOCK_IFD/Wyniki/9_hiv_rt

>  <Rbt.Executable>
rbdock ($Id: //depot/dev/client3/rdock/2013.1/src/exe/rbdock.cxx#4 $)

>  <Rbt.Library>
libRbt.so (2013.1, Build901 2013/11/27)

>  <Rbt.Parameter_File>
/home/malgorzata/Desktop/rDock_2013.1_src/data/scripts/soft_docking.prm

>  <Rbt.Receptor>
cavity.prm

>  <SCORE>
-29.8584

>  <SCORE.INTER>
-26.2772

>  <SCORE.INTER.CONST>
1

>  <SCORE.INTER.POLAR>
-0.887316

>  <SCORE.INTER.REPUL>
0.0191296

>  <SCORE.INTER.ROT>
6

>  <SCORE.INTER.VDW>
-34.756

>  <SCORE.INTER.norm>
-1.19442

>  <SCORE.INTRA>
1.47732

>  <SCORE.INTRA.DIHEDRAL>
4.32246

>  <SCORE.INTRA.DIHEDRAL.0>
11.8882

>  <SCORE.INTRA.POLAR>
0

>  <SCORE.INTRA.POLAR.0>
0

>  <SCORE.INTRA.REPUL>
0

>  <SCORE.INTRA.REPUL.0>
0

>  <SCORE.INTRA.VDW>
0.612823

>  <SCORE.INTRA.VDW.0>
-3.04122

>  <SCORE.INTRA.norm>
0.0671507

>  <SCORE.RESTR>
0

>  <SCORE.RESTR.CAVITY>
0

>  <SCORE.RESTR.norm>
0

>  <SCORE.SYSTEM>
-5.05844

>  <SCORE.SYSTEM.CONST>
0

>  <SCORE.SYSTEM.DIHEDRAL>
2.67051

>  <SCORE.SYSTEM.POLAR>
-1.03426

>  <SCORE.SYSTEM.VDW>
-2.8772

>  <SCORE.SYSTEM.norm>
-0.229929

>  <SCORE.heavy>
22

>  <SCORE.norm>
-1.3572

$$$$
612.pdb
  rDOCK(R)          3D
libRbt.so/2013.1/901 2013/11/27
 23 24  0  0  0  0  0  0  0  0999 V2000
   -3.2417  -34.0506   25.5492 C   0  0  0  0  0  0
   -3.1662  -33.1834   26.7971 C   0  0  0  0  0  0
   -4.4621  -33.2281   27.5635 C   0  0  0  0  0  0
   -5.6278  -32.7952   26.6798 C   0  0  0  0  0  0
   -5.7076  -33.6772   25.4405 C   0  0  0  0  0  0
   -4.4060  -33.6121   24.6719 C   0  0  0  0  0  0
   -1.6827  -33.7369   24.6476 S   0  0  0  0  0  0
   -0.7247  -35.3287   24.5613 C   0  0  0  0  0  0
   -0.8662  -36.1935   23.4850 C   0  0  0  0  0  0
   -1.5535  -35.8267   22.1563 C   0  0  0  0  0  0
   -0.9249  -34.6654   21.4228 C   0  0  0  0  0  0
   -3.0397  -35.7583   22.2449 C   0  0  0  0  0  0
   -0.1685  -37.4681   23.4913 C   0  0  0  0  0  0
   -0.2820  -38.3089   22.6088 O   0  0  0  0  0  0
    0.1059  -35.6623   25.6477 N   0  0  0  0  0  0
    0.8177  -36.8777   25.6935 C   0  0  0  0  0  0
    1.5635  -37.1755   26.6244 O   0  0  0  0  0  0
    0.6308  -37.7218   24.6091 N   0  0  0  0  0  0
    0.3255  -34.7381   26.7889 C   0  0  0  0  0  0
   -0.7105  -34.8417   27.7593 O   0  0  0  0  0  0
   -0.7198  -33.7169   28.6436 C   0  0  0  0  0  0
   -1.7488  -33.8987   29.7319 C   0  0  0  0  0  0
    1.1072  -38.5830   24.6288 H   0  0  0  0  0  0
  1  2  1  0  0  0
  1  6  1  0  0  0
  1  7  1  0  0  0
  2  3  1  0  0  0
  3  4  1  0  0  0
  4  5  1  0  0  0
  5  6  1  0  0  0
  7  8  1  0  0  0
  8  9  2  0  0  0
  8 15  1  0  0  0
  9 10  1  0  0  0
  9 13  1  0  0  0
 10 11  1  0  0  0
 10 12  1  0  0  0
 13 14  2  0  0  0
 13 18  1  0  0  0
 15 16  1  0  0  0
 15 19  1  0  0  0
 16 17  2  0  0  0
 16 18  1  0  0  0
 18 23  1  0  0  0
 19 20  1  0  0  0
 20 21  1  0  0  0
 21 22  1  0  0  0
M  END
>  <CHROM.0>
-153.27547465,158.62585857,-5.81217567

>  <CHROM.1>
117.10467977,91.81022999,59.48687353,83.88148897,-163.24390607,-175.34298564
-1.61230923,-35.04127442,25.30361736,2.36095866,-0.55240935,1.24870116

>  <FORMUL>
      612    C16 H26 N2 O3 S1

>  <HET>
 612  A 999      22

>  <HETNAM>
     612 6-(cyclohexylsulfanyl)-1-(ethoxymethyl)-5-(1-methylethy
   2 612 l)pyrimidine-2,4(1H,3H)-dione

>  <HETSYN>
     612 TNK-6123

>  <Name>
612.pdb

>  <RI>
0

>  <Rbt.Current_Directory>
/home/malgorzata/Desktop/rDOCK_IFD/Wyniki/9_hiv_rt

>  <Rbt.Executable>
rbdock ($Id: //depot/dev/client3/rdock/2013.1/src/exe/rbdock.cxx#4 $)

>  <Rbt.Library>
libRbt.so (2013.1, Build901 2013/11/27)

>  <Rbt.Parameter_File>
/home/malgorzata/Desktop/rDock_2013.1_src/data/scripts/soft_docking.prm

>  <Rbt.Receptor>
cavity.prm

>  <SCORE>
-24.5496

>  <SCORE.INTER>
-19.6461

>  <SCORE.INTER.CONST>
1

>  <SCORE.INTER.POLAR>
0

>  <SCORE.INTER.REPUL>
0

>  <SCORE.INTER.ROT>
6

>  <SCORE.INTER.VDW>
-31.0461

>  <SCORE.INTER.norm>
-0.893004

>  <SCORE.INTRA>
-0.709103

>  <SCORE.INTRA.DIHEDRAL>
-3.2195

>  <SCORE.INTRA.DIHEDRAL.0>
11.8882

>  <SCORE.INTRA.POLAR>
0

>  <SCORE.INTRA.POLAR.0>
0

>  <SCORE.INTRA.REPUL>
0

>  <SCORE.INTRA.REPUL.0>
0

>  <SCORE.INTRA.VDW>
-0.0652032

>  <SCORE.INTRA.VDW.0>
-3.04122

>  <SCORE.INTRA.norm>
-0.032232

>  <SCORE.RESTR>
0

>  <SCORE.RESTR.CAVITY>
0

>  <SCORE.RESTR.norm>
0

>  <SCORE.SYSTEM>
-4.1944

>  <SCORE.SYSTEM.CONST>
0

>  <SCORE.SYSTEM.DIHEDRAL>
1.68824

>  <SCORE.SYSTEM.POLAR>
-0.652816

>  <SCORE.SYSTEM.VDW>
-2.81895

>  <SCORE.SYSTEM.norm>
-0.190655

>  <SCORE.heavy>
22

>  <SCORE.norm>
-1.11589

$$$$
612.pdb
  rDOCK(R)          3D
libRbt.so/2013.1/901 2013/11/27
 23 24  0  0  0  0  0  0  0  0999 V2000
   -0.4310  -36.4593   25.8902 C   0  0  0  0  0  0
    0.8780  -36.9699   26.4739 C   0  0  0  0  0  0
    1.2558  -38.2970   25.8702 C   0  0  0  0  0  0
    0.1428  -39.3201   26.0746 C   0  0  0  0  0  0
   -1.1608  -38.8101   25.4741 C   0  0  0  0  0  0
   -1.5370  -37.4845   26.0989 C   0  0  0  0  0  0
   -0.8376  -34.9598   26.8536 S   0  0  0  0  0  0
   -2.4784  -34.3116   26.2648 C   0  0  0  0  0  0
   -2.7707  -34.2234   24.9109 C   0  0  0  0  0  0
   -1.9502  -34.8988   23.7960 C   0  0  0  0  0  0
   -1.3087  -33.9413   22.8194 C   0  0  0  0  0  0
   -2.6413  -36.0522   23.1529 C   0  0  0  0  0  0
   -4.0277  -33.6320   24.4845 C   0  0  0  0  0  0
   -4.3377  -33.4678   23.3117 O   0  0  0  0  0  0
   -3.3963  -33.8563   27.2299 N   0  0  0  0  0  0
   -4.6360  -33.2916   26.8689 C   0  0  0  0  0  0
   -5.4578  -32.9083   27.6990 O   0  0  0  0  0  0
   -4.8784  -33.2021   25.5063 N   0  0  0  0  0  0
   -3.1421  -33.9862   28.6872 C   0  0  0  0  0  0
   -3.0467  -32.7159   29.3219 O   0  0  0  0  0  0
   -2.0325  -32.7049   30.3311 C   0  0  0  0  0  0
   -2.6415  -32.8373   31.7050 C   0  0  0  0  0  0
   -5.7325  -32.7963   25.2325 H   0  0  0  0  0  0
  1  2  1  0  0  0
  1  6  1  0  0  0
  1  7  1  0  0  0
  2  3  1  0  0  0
  3  4  1  0  0  0
  4  5  1  0  0  0
  5  6  1  0  0  0
  7  8  1  0  0  0
  8  9  2  0  0  0
  8 15  1  0  0  0
  9 10  1  0  0  0
  9 13  1  0  0  0
 10 11  1  0  0  0
 10 12  1  0  0  0
 13 14  2  0  0  0
 13 18  1  0  0  0
 15 16  1  0  0  0
 15 19  1  0  0  0
 16 17  2  0  0  0
 16 18  1  0  0  0
 18 23  1  0  0  0
 19 20  1  0  0  0
 20 21  1  0  0  0
 21 22  1  0  0  0
M  END
>  <CHROM.0>
-175.59440187,38.17721201,-33.32800234

>  <CHROM.1>
-177.11277313,-44.64392827,-117.47437930,116.69702129,-141.55665757,-101.25870631
-2.23523913,-34.90085488,26.36731181,-0.74967163,-0.80079023,1.29368636

>  <FORMUL>
      612    C16 H26 N2 O3 S1

>  <HET>
 612  A 999      22

>  <HETNAM>
     612 6-(cyclohexylsulfanyl)-1-(ethoxymethyl)-5-(1-methylethy
   2 612 l)pyrimidine-2,4(1H,3H)-dione

>  <HETSYN>
     612 TNK-6123

>  <Name>
612.pdb

>  <RI>
0

>  <Rbt.Current_Directory>
/home/malgorzata/Desktop/rDOCK_IFD/Wyniki/9_hiv_rt

>  <Rbt.Executable>
rbdock ($Id: //depot/dev/client3/rdock/2013.1/src/exe/rbdock.cxx#4 $)

>  <Rbt.Library>
libRbt.so (2013.1, Build901 2013/11/27)

>  <Rbt.Parameter_File>
/home/malgorzata/Desktop/rDock_2013.1_src/data/scripts/soft_docking.prm

>  <Rbt.Receptor>
cavity.prm

>  <SCORE>
-25.5569

>  <SCORE.INTER>
-23.1184

>  <SCORE.INTER.CONST>
1

>  <SCORE.INTER.POLAR>
-0.0771898

>  <SCORE.INTER.REPUL>
0

>  <SCORE.INTER.ROT>
6

>  <SCORE.INTER.VDW>
-34.256

>  <SCORE.INTER.norm>
-1.05084

>  <SCORE.INTRA>
1.67827

>  <SCORE.INTRA.DIHEDRAL>
3.7972

>  <SCORE.INTRA.DIHEDRAL.0>
11.8882

>  <SCORE.INTRA.POLAR>
0

>  <SCORE.INTRA.POLAR.0>
0

>  <SCORE.INTRA.REPUL>
0

>  <SCORE.INTRA.REPUL.0>
0

>  <SCORE.INTRA.VDW>
0.918829

>  <SCORE.INTRA.VDW.0>
-3.04122

>  <SCORE.INTRA.norm>
0.0762849

>  <SCORE.RESTR>
0

>  <SCORE.RESTR.CAVITY>
0

>  <SCORE.RESTR.norm>
0

>  <SCORE.SYSTEM>
-4.11675

>  <SCORE.SYSTEM.CONST>
0

>  <SCORE.SYSTEM.DIHEDRAL>
3.27309

>  <SCORE.SYSTEM.POLAR>
-0.860855

>  <SCORE.SYSTEM.VDW>
-2.82638

>  <SCORE.SYSTEM.norm>
-0.187125

>  <SCORE.heavy>
22

>  <SCORE.norm>
-1.16168

$$$$
612.pdb
  rDOCK(R)          3D
libRbt.so/2013.1/901 2013/11/27
 23 24  0  0  0  0  0  0  0  0999 V2000
   -2.8044  -34.0092   24.4293 C   0  0  0  0  0  0
   -4.1839  -33.3688   24.3862 C   0  0  0  0  0  0
   -5.1961  -34.3096   23.7872 C   0  0  0  0  0  0
   -4.7656  -34.7492   22.3912 C   0  0  0  0  0  0
   -3.3912  -35.4036   22.4436 C   0  0  0  0  0  0
   -2.3809  -34.4439   23.0331 C   0  0  0  0  0  0
   -1.6754  -32.6874   24.9951 S   0  0  0  0  0  0
   -1.1987  -33.0382   26.7582 C   0  0  0  0  0  0
    0.0982  -33.4029   27.0916 C   0  0  0  0  0  0
    1.3105  -33.2697   26.1508 C   0  0  0  0  0  0
    1.2668  -32.0693   25.2349 C   0  0  0  0  0  0
    1.6887  -34.5410   25.4709 C   0  0  0  0  0  0
    0.4150  -33.7535   28.4657 C   0  0  0  0  0  0
    1.5184  -34.1373   28.8316 O   0  0  0  0  0  0
   -2.2050  -32.9812   27.7409 N   0  0  0  0  0  0
   -1.9451  -33.2941   29.0901 C   0  0  0  0  0  0
   -2.8069  -33.2294   29.9645 O   0  0  0  0  0  0
   -0.6425  -33.6748   29.3758 N   0  0  0  0  0  0
   -3.5890  -32.5410   27.4316 C   0  0  0  0  0  0
   -4.4689  -33.6465   27.2603 O   0  0  0  0  0  0
   -5.8383  -33.2591   27.4085 C   0  0  0  0  0  0
   -6.7524  -34.2512   26.7329 C   0  0  0  0  0  0
   -0.4436  -33.9125   30.3102 H   0  0  0  0  0  0
  1  2  1  0  0  0
  1  6  1  0  0  0
  1  7  1  0  0  0
  2  3  1  0  0  0
  3  4  1  0  0  0
  4  5  1  0  0  0
  5  6  1  0  0  0
  7  8  1  0  0  0
  8  9  2  0  0  0
  8 15  1  0  0  0
  9 10  1  0  0  0
  9 13  1  0  0  0
 10 11  1  0  0  0
 10 12  1  0  0  0
 13 14  2  0  0  0
 13 18  1  0  0  0
 15 16  1  0  0  0
 15 19  1  0  0  0
 16 17  2  0  0  0
 16 18  1  0  0  0
 18 23  1  0  0  0
 19 20  1  0  0  0
 20 21  1  0  0  0
 21 22  1  0  0  0
M  END
>  <CHROM.0>
162.55926015,-173.76497439,-175.37262238

>  <CHROM.1>
106.19314091,111.55768931,34.57528038,99.42969386,160.55148555,158.45997659
-2.16235302,-33.59443829,26.24126145,-2.54245470,0.04381522,1.43051986

>  <FORMUL>
      612    C16 H26 N2 O3 S1

>  <HET>
 612  A 999      22

>  <HETNAM>
     612 6-(cyclohexylsulfanyl)-1-(ethoxymethyl)-5-(1-methylethy
   2 612 l)pyrimidine-2,4(1H,3H)-dione

>  <HETSYN>
     612 TNK-6123

>  <Name>
612.pdb

>  <RI>
0

>  <Rbt.Current_Directory>
/home/malgorzata/Desktop/rDOCK_IFD/Wyniki/9_hiv_rt

>  <Rbt.Executable>
rbdock ($Id: //depot/dev/client3/rdock/2013.1/src/exe/rbdock.cxx#4 $)

>  <Rbt.Library>
libRbt.so (2013.1, Build901 2013/11/27)

>  <Rbt.Parameter_File>
/home/malgorzata/Desktop/rDock_2013.1_src/data/scripts/soft_docking.prm

>  <Rbt.Receptor>
cavity.prm

>  <SCORE>
-26.7453

>  <SCORE.INTER>
-22.1663

>  <SCORE.INTER.CONST>
1

>  <SCORE.INTER.POLAR>
0

>  <SCORE.INTER.REPUL>
0

>  <SCORE.INTER.ROT>
6

>  <SCORE.INTER.VDW>
-33.5663

>  <SCORE.INTER.norm>
-1.00756

>  <SCORE.INTRA>
1.51779

>  <SCORE.INTRA.DIHEDRAL>
-1.20603

>  <SCORE.INTRA.DIHEDRAL.0>
11.8882

>  <SCORE.INTRA.POLAR>
0

>  <SCORE.INTRA.POLAR.0>
0

>  <SCORE.INTRA.REPUL>
0

>  <SCORE.INTRA.REPUL.0>
0

>  <SCORE.INTRA.VDW>
1.75899

>  <SCORE.INTRA.VDW.0>
-3.04122

>  <SCORE.INTRA.norm>
0.0689903

>  <SCORE.RESTR>
0.641875

>  <SCORE.RESTR.CAVITY>
0.128375

>  <SCORE.RESTR.norm>
0.0291762

>  <SCORE.SYSTEM>
-6.73866

>  <SCORE.SYSTEM.CONST>
0

>  <SCORE.SYSTEM.DIHEDRAL>
0.559834

>  <SCORE.SYSTEM.POLAR>
-1.17855

>  <SCORE.SYSTEM.VDW>
-3.01152

>  <SCORE.SYSTEM.norm>
-0.306303

>  <SCORE.heavy>
22

>  <SCORE.norm>
-1.2157

$$$$
612.pdb
  rDOCK(R)          3D
libRbt.so/2013.1/901 2013/11/27
 23 24  0  0  0  0  0  0  0  0999 V2000
   -1.2432  -34.2008   26.8930 C   0  0  0  0  0  0
   -1.9693  -34.3038   28.2262 C   0  0  0  0  0  0
   -1.5217  -33.2178   29.1689 C   0  0  0  0  0  0
   -0.0112  -33.2706   29.3759 C   0  0  0  0  0  0
    0.7100  -33.1510   28.0396 C   0  0  0  0  0  0
    0.2630  -34.2555   27.1073 C   0  0  0  0  0  0
   -1.7515  -35.6820   25.9500 S   0  0  0  0  0  0
   -2.8299  -35.1358   24.5367 C   0  0  0  0  0  0
   -2.7607  -35.7598   23.2988 C   0  0  0  0  0  0
   -2.0533  -37.1029   23.0379 C   0  0  0  0  0  0
   -2.4496  -38.2157   23.9795 C   0  0  0  0  0  0
   -0.5832  -36.9791   22.8261 C   0  0  0  0  0  0
   -3.5548  -35.2518   22.1930 C   0  0  0  0  0  0
   -3.5106  -35.7097   21.0585 O   0  0  0  0  0  0
   -3.6788  -34.0312   24.7388 N   0  0  0  0  0  0
   -4.4821  -33.5118   23.7040 C   0  0  0  0  0  0
   -5.2443  -32.5613   23.8689 O   0  0  0  0  0  0
   -4.3659  -34.1504   22.4785 N   0  0  0  0  0  0
   -3.8210  -33.3744   26.0629 C   0  0  0  0  0  0
   -4.4696  -34.2210   27.0054 O   0  0  0  0  0  0
   -5.7672  -33.7279   27.3524 C   0  0  0  0  0  0
   -6.6754  -34.8569   27.7725 C   0  0  0  0  0  0
   -4.9074  -33.7931   21.7380 H   0  0  0  0  0  0
  1  2  1  0  0  0
  1  6  1  0  0  0
  1  7  1  0  0  0
  2  3  1  0  0  0
  3  4  1  0  0  0
  4  5  1  0  0  0
  5  6  1  0  0  0
  7  8  1  0  0  0
  8  9  2  0  0  0
  8 15  1  0  0  0
  9 10  1  0  0  0
  9 13  1  0  0  0
 10 11  1  0  0  0
 10 12  1  0  0  0
 13 14  2  0  0  0
 13 18  1  0  0  0
 15 16  1  0  0  0
 15 19  1  0  0  0
 16 17  2  0  0  0
 16 18  1  0  0  0
 18 23  1  0  0  0
 19 20  1  0  0  0
 20 21  1  0  0  0
 21 22  1  0  0  0
M  END
>  <CHROM.0>
162.45312277,141.98323720,168.62739675

>  <CHROM.1>
110.84375050,142.84832708,50.82780150,-67.98205214,-111.67190315,152.80791702
-2.78107421,-34.71768142,25.43437871,-1.22318260,0.31914808,-2.00408563

>  <FORMUL>
      612    C16 H26 N2 O3 S1

>  <HET>
 612  A 999      22

>  <HETNAM>
     612 6-(cyclohexylsulfanyl)-1-(ethoxymethyl)-5-(1-methylethy
   2 612 l)pyrimidine-2,4(1H,3H)-dione

>  <HETSYN>
     612 TNK-6123

>  <Name>
612.pdb

>  <RI>
0

>  <Rbt.Current_Directory>
/home/malgorzata/Desktop/rDOCK_IFD/Wyniki/9_hiv_rt

>  <Rbt.Executable>
rbdock ($Id: //depot/dev/client3/rdock/2013.1/src/exe/rbdock.cxx#4 $)

>  <Rbt.Library>
libRbt.so (2013.1, Build901 2013/11/27)

>  <Rbt.Parameter_File>
/home/malgorzata/Desktop/rDock_2013.1_src/data/scripts/soft_docking.prm

>  <Rbt.Receptor>
cavity.prm

>  <SCORE>
-25.4135

>  <SCORE.INTER>
-24.2348

>  <SCORE.INTER.CONST>
1

>  <SCORE.INTER.POLAR>
-0.367713

>  <SCORE.INTER.REPUL>
0.209861

>  <SCORE.INTER.ROT>
6

>  <SCORE.INTER.VDW>
-35.4339

>  <SCORE.INTER.norm>
-1.10158

>  <SCORE.INTRA>
3.96186

>  <SCORE.INTRA.DIHEDRAL>
5.59504

>  <SCORE.INTRA.DIHEDRAL.0>
11.8882

>  <SCORE.INTRA.POLAR>
0

>  <SCORE.INTRA.POLAR.0>
0

>  <SCORE.INTRA.REPUL>
0

>  <SCORE.INTRA.REPUL.0>
0

>  <SCORE.INTRA.VDW>
2.84285

>  <SCORE.INTRA.VDW.0>
-3.04122

>  <SCORE.INTRA.norm>
0.180084

>  <SCORE.RESTR>
0

>  <SCORE.RESTR.CAVITY>
0

>  <SCORE.RESTR.norm>
0

>  <SCORE.SYSTEM>
-5.14054

>  <SCORE.SYSTEM.CONST>
0

>  <SCORE.SYSTEM.DIHEDRAL>
2.70143

>  <SCORE.SYSTEM.POLAR>
-1.04033

>  <SCORE.SYSTEM.VDW>
-2.95415

>  <SCORE.SYSTEM.norm>
-0.233661

>  <SCORE.heavy>
22

>  <SCORE.norm>
-1.15516

$$$$
612.pdb
  rDOCK(R)          3D
libRbt.so/2013.1/901 2013/11/27
 23 24  0  0  0  0  0  0  0  0999 V2000
   -4.5172  -34.2847   25.7029 C   0  0  0  0  0  0
   -4.6327  -33.1366   26.6947 C   0  0  0  0  0  0
   -5.4285  -33.5483   27.9053 C   0  0  0  0  0  0
   -6.8120  -34.0464   27.4988 C   0  0  0  0  0  0
   -6.6895  -35.2057   26.5185 C   0  0  0  0  0  0
   -5.9012  -34.7755   25.3009 C   0  0  0  0  0  0
   -3.7018  -33.5714   24.2304 S   0  0  0  0  0  0
   -2.0577  -34.4112   24.0061 C   0  0  0  0  0  0
   -1.7691  -35.1263   22.8521 C   0  0  0  0  0  0
   -2.5989  -35.0619   21.5560 C   0  0  0  0  0  0
   -2.7137  -33.6826   20.9508 C   0  0  0  0  0  0
   -3.8893  -35.8043   21.6286 C   0  0  0  0  0  0
   -0.5087  -35.8416   22.7467 C   0  0  0  0  0  0
   -0.2012  -36.5382   21.7881 O   0  0  0  0  0  0
   -1.1328  -34.3518   25.0656 N   0  0  0  0  0  0
    0.1103  -35.0129   25.0052 C   0  0  0  0  0  0
    0.9380  -34.9542   25.9124 O   0  0  0  0  0  0
    0.3490  -35.7335   23.8446 N   0  0  0  0  0  0
   -1.3833  -33.5510   26.2907 C   0  0  0  0  0  0
   -0.2740  -33.5877   27.1816 O   0  0  0  0  0  0
   -0.4466  -32.6833   28.2769 C   0  0  0  0  0  0
    0.6682  -32.8388   29.2815 C   0  0  0  0  0  0
    1.2055  -36.2155   23.7889 H   0  0  0  0  0  0
  1  2  1  0  0  0
  1  6  1  0  0  0
  1  7  1  0  0  0
  2  3  1  0  0  0
  3  4  1  0  0  0
  4  5  1  0  0  0
  5  6  1  0  0  0
  7  8  1  0  0  0
  8  9  2  0  0  0
  8 15  1  0  0  0
  9 10  1  0  0  0
  9 13  1  0  0  0
 10 11  1  0  0  0
 10 12  1  0  0  0
 13 14  2  0  0  0
 13 18  1  0  0  0
 15 16  1  0  0  0
 15 19  1  0  0  0
 16 17  2  0  0  0
 16 18  1  0  0  0
 18 23  1  0  0  0
 19 20  1  0  0  0
 20 21  1  0  0  0
 21 22  1  0  0  0
M  END
>  <CHROM.0>
179.62615653,159.86594984,-144.26915585

>  <CHROM.1>
116.13217832,119.37289363,58.76273198,-176.66468234,172.57848034,174.16575023
-2.42794473,-34.39021986,24.99538528,2.29178782,-0.03325587,1.25853710

>  <FORMUL>
      612    C16 H26 N2 O3 S1

>  <HET>
 612  A 999      22

>  <HETNAM>
     612 6-(cyclohexylsulfanyl)-1-(ethoxymethyl)-5-(1-methylethy
   2 612 l)pyrimidine-2,4(1H,3H)-dione

>  <HETSYN>
     612 TNK-6123

>  <Name>
612.pdb

>  <RI>
0

>  <Rbt.Current_Directory>
/home/malgorzata/Desktop/rDOCK_IFD/Wyniki/9_hiv_rt

>  <Rbt.Executable>
rbdock ($Id: //depot/dev/client3/rdock/2013.1/src/exe/rbdock.cxx#4 $)

>  <Rbt.Library>
libRbt.so (2013.1, Build901 2013/11/27)

>  <Rbt.Parameter_File>
/home/malgorzata/Desktop/rDock_2013.1_src/data/scripts/soft_docking.prm

>  <Rbt.Receptor>
cavity.prm

>  <SCORE>
-27.2246

>  <SCORE.INTER>
-24.4226

>  <SCORE.INTER.CONST>
1

>  <SCORE.INTER.POLAR>
0

>  <SCORE.INTER.REPUL>
0

>  <SCORE.INTER.ROT>
6

>  <SCORE.INTER.VDW>
-35.8226

>  <SCORE.INTER.norm>
-1.11012

>  <SCORE.INTRA>
3.59069

>  <SCORE.INTRA.DIHEDRAL>
-3.947

>  <SCORE.INTRA.DIHEDRAL.0>
11.8882

>  <SCORE.INTRA.POLAR>
0

>  <SCORE.INTRA.POLAR.0>
0

>  <SCORE.INTRA.REPUL>
0

>  <SCORE.INTRA.REPUL.0>
0

>  <SCORE.INTRA.VDW>
4.38009

>  <SCORE.INTRA.VDW.0>
-3.04122

>  <SCORE.INTRA.norm>
0.163213

>  <SCORE.RESTR>
0

>  <SCORE.RESTR.CAVITY>
0

>  <SCORE.RESTR.norm>
0

>  <SCORE.SYSTEM>
-6.39274

>  <SCORE.SYSTEM.CONST>
0

>  <SCORE.SYSTEM.DIHEDRAL>
2.2031

>  <SCORE.SYSTEM.POLAR>
-1.29894

>  <SCORE.SYSTEM.VDW>
-3.0779

>  <SCORE.SYSTEM.norm>
-0.290579

>  <SCORE.heavy>
22

>  <SCORE.norm>
-1.23748

$$$$
612.pdb
  rDOCK(R)          3D
libRbt.so/2013.1/901 2013/11/27
 23 24  0  0  0  0  0  0  0  0999 V2000
   -0.6131  -36.6589   25.6790 C   0  0  0  0  0  0
   -1.3460  -37.4630   24.6154 C   0  0  0  0  0  0
   -1.5076  -38.8986   25.0413 C   0  0  0  0  0  0
   -0.1519  -39.5270   25.3487 C   0  0  0  0  0  0
    0.5697  -38.7268   26.4252 C   0  0  0  0  0  0
    0.7390  -37.2909   25.9795 C   0  0  0  0  0  0
   -0.3338  -35.0131   24.9339 S   0  0  0  0  0  0
   -1.9500  -34.0930   24.9218 C   0  0  0  0  0  0
   -2.6678  -33.9195   23.7467 C   0  0  0  0  0  0
   -2.3961  -34.6849   22.4380 C   0  0  0  0  0  0
   -2.3746  -33.8224   21.1980 C   0  0  0  0  0  0
   -3.1921  -35.9369   22.2951 C   0  0  0  0  0  0
   -3.8824  -33.1219   23.7580 C   0  0  0  0  0  0
   -4.5427  -32.8758   22.7570 O   0  0  0  0  0  0
   -2.3985  -33.5247   26.1291 N   0  0  0  0  0  0
   -3.5790  -32.7581   26.1966 C   0  0  0  0  0  0
   -3.9959  -32.2723   27.2462 O   0  0  0  0  0  0
   -4.2533  -32.5910   24.9963 N   0  0  0  0  0  0
   -1.6874  -33.7363   27.4154 C   0  0  0  0  0  0
   -0.7812  -32.6759   27.6985 O   0  0  0  0  0  0
   -1.0819  -32.0436   28.9463 C   0  0  0  0  0  0
   -0.0141  -32.3414   29.9696 C   0  0  0  0  0  0
   -5.0725  -32.0456   25.0189 H   0  0  0  0  0  0
  1  2  1  0  0  0
  1  6  1  0  0  0
  1  7  1  0  0  0
  2  3  1  0  0  0
  3  4  1  0  0  0
  4  5  1  0  0  0
  5  6  1  0  0  0
  7  8  1  0  0  0
  8  9  2  0  0  0
  8 15  1  0  0  0
  9 10  1  0  0  0
  9 13  1  0  0  0
 10 11  1  0  0  0
 10 12  1  0  0  0
 13 14  2  0  0  0
 13 18  1  0  0  0
 15 16  1  0  0  0
 15 19  1  0  0  0
 16 17  2  0  0  0
 16 18  1  0  0  0
 18 23  1  0  0  0
 19 20  1  0  0  0
 20 21  1  0  0  0
 21 22  1  0  0  0
M  END
>  <CHROM.0>
-9.74676312,-15.59291459,-142.89832892

>  <CHROM.1>
74.46680812,-105.39693217,-134.28987914,95.17078776,121.81161749,110.71770702
-1.80396361,-34.71424556,25.35462771,-0.89724376,-0.92159008,0.80959896

>  <FORMUL>
      612    C16 H26 N2 O3 S1

>  <HET>
 612  A 999      22

>  <HETNAM>
     612 6-(cyclohexylsulfanyl)-1-(ethoxymethyl)-5-(1-methylethy
   2 612 l)pyrimidine-2,4(1H,3H)-dione

>  <HETSYN>
     612 TNK-6123

>  <Name>
612.pdb

>  <RI>
0

>  <Rbt.Current_Directory>
/home/malgorzata/Desktop/rDOCK_IFD/Wyniki/9_hiv_rt

>  <Rbt.Executable>
rbdock ($Id: //depot/dev/client3/rdock/2013.1/src/exe/rbdock.cxx#4 $)

>  <Rbt.Library>
libRbt.so (2013.1, Build901 2013/11/27)

>  <Rbt.Parameter_File>
/home/malgorzata/Desktop/rDock_2013.1_src/data/scripts/soft_docking.prm

>  <Rbt.Receptor>
cavity.prm

>  <SCORE>
-27.2867

>  <SCORE.INTER>
-26.8775

>  <SCORE.INTER.CONST>
1

>  <SCORE.INTER.POLAR>
-0.136897

>  <SCORE.INTER.REPUL>
0

>  <SCORE.INTER.ROT>
6

>  <SCORE.INTER.VDW>
-37.8121

>  <SCORE.INTER.norm>
-1.22171

>  <SCORE.INTRA>
2.70795

>  <SCORE.INTRA.DIHEDRAL>
7.57224

>  <SCORE.INTRA.DIHEDRAL.0>
11.8882

>  <SCORE.INTRA.POLAR>
0

>  <SCORE.INTRA.POLAR.0>
0

>  <SCORE.INTRA.REPUL>
0

>  <SCORE.INTRA.REPUL.0>
0

>  <SCORE.INTRA.VDW>
1.19351

>  <SCORE.INTRA.VDW.0>
-3.04122

>  <SCORE.INTRA.norm>
0.123089

>  <SCORE.RESTR>
0

>  <SCORE.RESTR.CAVITY>
0

>  <SCORE.RESTR.norm>
0

>  <SCORE.SYSTEM>
-3.11711

>  <SCORE.SYSTEM.CONST>
0

>  <SCORE.SYSTEM.DIHEDRAL>
2.24871

>  <SCORE.SYSTEM.POLAR>
-0.535544

>  <SCORE.SYSTEM.VDW>
-2.42061

>  <SCORE.SYSTEM.norm>
-0.141687

>  <SCORE.heavy>
22

>  <SCORE.norm>
-1.2403

$$$$
612.pdb
  rDOCK(R)          3D
libRbt.so/2013.1/901 2013/11/27
 23 24  0  0  0  0  0  0  0  0999 V2000
   -2.1814  -33.7594   24.0879 C   0  0  0  0  0  0
   -1.7531  -34.7502   23.0155 C   0  0  0  0  0  0
   -2.2677  -34.3353   21.6622 C   0  0  0  0  0  0
   -3.7863  -34.1909   21.6825 C   0  0  0  0  0  0
   -4.2075  -33.1861   22.7470 C   0  0  0  0  0  0
   -3.6975  -33.6215   24.1032 C   0  0  0  0  0  0
   -1.6481  -34.5007   25.6716 S   0  0  0  0  0  0
    0.1693  -34.8791   25.5593 C   0  0  0  0  0  0
    0.6190  -36.1642   25.2900 C   0  0  0  0  0  0
   -0.2717  -37.3090   24.7720 C   0  0  0  0  0  0
   -0.7136  -38.2906   25.8318 C   0  0  0  0  0  0
    0.2321  -37.9473   23.5229 C   0  0  0  0  0  0
    2.0454  -36.4418   25.2950 C   0  0  0  0  0  0
    2.5210  -37.5563   25.1212 O   0  0  0  0  0  0
    1.0805  -33.8368   25.8138 N   0  0  0  0  0  0
    2.4734  -34.0501   25.8125 C   0  0  0  0  0  0
    3.2835  -33.1471   26.0120 O   0  0  0  0  0  0
    2.8790  -35.3523   25.5610 N   0  0  0  0  0  0
    0.6381  -32.4390   26.0498 C   0  0  0  0  0  0
   -0.3211  -32.3586   27.0981 O   0  0  0  0  0  0
    0.1581  -32.9693   28.3000 C   0  0  0  0  0  0
   -0.9677  -33.1745   29.2831 C   0  0  0  0  0  0
    3.8480  -35.5258   25.5708 H   0  0  0  0  0  0
  1  2  1  0  0  0
  1  6  1  0  0  0
  1  7  1  0  0  0
  2  3  1  0  0  0
  3  4  1  0  0  0
  4  5  1  0  0  0
  5  6  1  0  0  0
  7  8  1  0  0  0
  8  9  2  0  0  0
  8 15  1  0  0  0
  9 10  1  0  0  0
  9 13  1  0  0  0
 10 11  1  0  0  0
 10 12  1  0  0  0
 13 14  2  0  0  0
 13 18  1  0  0  0
 15 16  1  0  0  0
 15 19  1  0  0  0
 16 17  2  0  0  0
 16 18  1  0  0  0
 18 23  1  0  0  0
 19 20  1  0  0  0
 20 21  1  0  0  0
 21 22  1  0  0  0
M  END
>  <CHROM.0>
159.29521976,147.83076464,-154.97801753

>  <CHROM.1>
54.34470177,-99.84289594,-100.38323527,54.25962366,54.19684095,-166.31666084
-0.32155007,-34.71659981,25.15946472,2.88191136,0.54847619,-2.46795304

>  <FORMUL>
      612    C16 H26 N2 O3 S1

>  <HET>
 612  A 999      22

>  <HETNAM>
     612 6-(cyclohexylsulfanyl)-1-(ethoxymethyl)-5-(1-methylethy
   2 612 l)pyrimidine-2,4(1H,3H)-dione

>  <HETSYN>
     612 TNK-6123

>  <Name>
612.pdb

>  <RI>
0

>  <Rbt.Current_Directory>
/home/malgorzata/Desktop/rDOCK_IFD/Wyniki/9_hiv_rt

>  <Rbt.Executable>
rbdock ($Id: //depot/dev/client3/rdock/2013.1/src/exe/rbdock.cxx#4 $)

>  <Rbt.Library>
libRbt.so (2013.1, Build901 2013/11/27)

>  <Rbt.Parameter_File>
/home/malgorzata/Desktop/rDock_2013.1_src/data/scripts/soft_docking.prm

>  <Rbt.Receptor>
cavity.prm

>  <SCORE>
-29.1504

>  <SCORE.INTER>
-23.3498

>  <SCORE.INTER.CONST>
1

>  <SCORE.INTER.POLAR>
0

>  <SCORE.INTER.REPUL>
0

>  <SCORE.INTER.ROT>
6

>  <SCORE.INTER.VDW>
-34.7498

>  <SCORE.INTER.norm>
-1.06136

>  <SCORE.INTRA>
0.455717

>  <SCORE.INTRA.DIHEDRAL>
-5.62015

>  <SCORE.INTRA.DIHEDRAL.0>
11.8882

>  <SCORE.INTRA.POLAR>
0

>  <SCORE.INTRA.POLAR.0>
0

>  <SCORE.INTRA.REPUL>
0

>  <SCORE.INTRA.REPUL.0>
0

>  <SCORE.INTRA.VDW>
1.57975

>  <SCORE.INTRA.VDW.0>
-3.04122

>  <SCORE.INTRA.norm>
0.0207144

>  <SCORE.RESTR>
0

>  <SCORE.RESTR.CAVITY>
0

>  <SCORE.RESTR.norm>
0

>  <SCORE.SYSTEM>
-6.25631

>  <SCORE.SYSTEM.CONST>
0

>  <SCORE.SYSTEM.DIHEDRAL>
2.94885

>  <SCORE.SYSTEM.POLAR>
-1.34614

>  <SCORE.SYSTEM.VDW>
-3.15385

>  <SCORE.SYSTEM.norm>
-0.284378

>  <SCORE.heavy>
22

>  <SCORE.norm>
-1.32502

$$$$
612.pdb
  rDOCK(R)          3D
libRbt.so/2013.1/901 2013/11/27
 23 24  0  0  0  0  0  0  0  0999 V2000
   -0.6548  -36.9147   25.7608 C   0  0  0  0  0  0
   -0.4967  -37.5514   24.3880 C   0  0  0  0  0  0
   -0.5789  -39.0526   24.4776 C   0  0  0  0  0  0
    0.4701  -39.5946   25.4436 C   0  0  0  0  0  0
    0.2965  -38.9654   26.8199 C   0  0  0  0  0  0
    0.3958  -37.4591   26.7188 C   0  0  0  0  0  0
   -0.3421  -35.1317   25.5057 S   0  0  0  0  0  0
   -1.6515  -34.1712   26.4121 C   0  0  0  0  0  0
   -1.3277  -33.3556   27.4874 C   0  0  0  0  0  0
    0.1043  -32.9213   27.8521 C   0  0  0  0  0  0
    0.6780  -33.6060   29.0703 C   0  0  0  0  0  0
    0.3113  -31.4455   27.8291 C   0  0  0  0  0  0
   -2.3856  -32.6875   28.2263 C   0  0  0  0  0  0
   -2.1897  -31.9964   29.2175 O   0  0  0  0  0  0
   -2.9915  -34.3393   26.0148 N   0  0  0  0  0  0
   -4.0521  -33.6996   26.6869 C   0  0  0  0  0  0
   -5.2256  -33.8188   26.3404 O   0  0  0  0  0  0
   -3.6866  -32.9122   27.7685 N   0  0  0  0  0  0
   -3.3703  -35.1583   24.8355 C   0  0  0  0  0  0
   -2.4494  -34.9967   23.7625 O   0  0  0  0  0  0
   -2.9119  -34.0341   22.8103 C   0  0  0  0  0  0
   -2.2759  -34.2650   21.4619 C   0  0  0  0  0  0
   -4.4142  -32.4686   28.2614 H   0  0  0  0  0  0
  1  2  1  0  0  0
  1  6  1  0  0  0
  1  7  1  0  0  0
  2  3  1  0  0  0
  3  4  1  0  0  0
  4  5  1  0  0  0
  5  6  1  0  0  0
  7  8  1  0  0  0
  8  9  2  0  0  0
  8 15  1  0  0  0
  9 10  1  0  0  0
  9 13  1  0  0  0
 10 11  1  0  0  0
 10 12  1  0  0  0
 13 14  2  0  0  0
 13 18  1  0  0  0
 15 16  1  0  0  0
 15 19  1  0  0  0
 16 17  2  0  0  0
 16 18  1  0  0  0
 18 23  1  0  0  0
 19 20  1  0  0  0
 20 21  1  0  0  0
 21 22  1  0  0  0
M  END
>  <CHROM.0>
174.69342199,-68.67967151,-173.84677495

>  <CHROM.1>
134.86415704,114.89411792,-106.38485368,-38.55720656,-96.85934715,-156.73206067
-1.51110393,-34.91222664,26.07813452,-1.17550014,-0.75528626,0.78356329

>  <FORMUL>
      612    C16 H26 N2 O3 S1

>  <HET>
 612  A 999      22

>  <HETNAM>
     612 6-(cyclohexylsulfanyl)-1-(ethoxymethyl)-5-(1-methylethy
   2 612 l)pyrimidine-2,4(1H,3H)-dione

>  <HETSYN>
     612 TNK-6123

>  <Name>
612.pdb

>  <RI>
0

>  <Rbt.Current_Directory>
/home/malgorzata/Desktop/rDOCK_IFD/Wyniki/9_hiv_rt

>  <Rbt.Executable>
rbdock ($Id: //depot/dev/client3/rdock/2013.1/src/exe/rbdock.cxx#4 $)

>  <Rbt.Library>
libRbt.so (2013.1, Build901 2013/11/27)

>  <Rbt.Parameter_File>
/home/malgorzata/Desktop/rDock_2013.1_src/data/scripts/soft_docking.prm

>  <Rbt.Receptor>
cavity.prm

>  <SCORE>
-26.5133

>  <SCORE.INTER>
-23.8556

>  <SCORE.INTER.CONST>
1

>  <SCORE.INTER.POLAR>
0

>  <SCORE.INTER.REPUL>
0

>  <SCORE.INTER.ROT>
6

>  <SCORE.INTER.VDW>
-35.2556

>  <SCORE.INTER.norm>
-1.08434

>  <SCORE.INTRA>
1.87851

>  <SCORE.INTRA.DIHEDRAL>
2.24215

>  <SCORE.INTRA.DIHEDRAL.0>
11.8882

>  <SCORE.INTRA.POLAR>
0

>  <SCORE.INTRA.POLAR.0>
0

>  <SCORE.INTRA.REPUL>
0

>  <SCORE.INTRA.REPUL.0>
0

>  <SCORE.INTRA.VDW>
1.43008

>  <SCORE.INTRA.VDW.0>
-3.04122

>  <SCORE.INTRA.norm>
0.0853866

>  <SCORE.RESTR>
0.106023

>  <SCORE.RESTR.CAVITY>
0.0212047

>  <SCORE.RESTR.norm>
0.00481924

>  <SCORE.SYSTEM>
-4.64226

>  <SCORE.SYSTEM.CONST>
0

>  <SCORE.SYSTEM.DIHEDRAL>
4.35819

>  <SCORE.SYSTEM.POLAR>
-1.16004

>  <SCORE.SYSTEM.VDW>
-2.87723

>  <SCORE.SYSTEM.norm>
-0.211012

>  <SCORE.heavy>
22

>  <SCORE.norm>
-1.20515

$$$$
