612.pdb
  rDOCK(R)          3D
libRbt.so/2013.1/901 2013/11/27
 23 24  0  0  0  0  0  0  0  0999 V2000
   -0.6577  -33.7128   26.7310 C   0  0  0  0  0  0
   -1.5284  -33.3464   27.9238 C   0  0  0  0  0  0
   -0.8812  -32.2678   28.7522 C   0  0  0  0  0  0
    0.5065  -32.7011   29.2147 C   0  0  0  0  0  0
    1.3780  -33.0512   28.0156 C   0  0  0  0  0  0
    0.7245  -34.1453   27.2001 C   0  0  0  0  0  0
   -1.4832  -35.1459   25.9520 S   0  0  0  0  0  0
   -1.4251  -34.9241   24.1064 C   0  0  0  0  0  0
   -2.5076  -34.4020   23.4124 C   0  0  0  0  0  0
   -3.7051  -33.6915   24.0710 C   0  0  0  0  0  0
   -5.0213  -34.4201   23.9344 C   0  0  0  0  0  0
   -3.7819  -32.2339   23.7694 C   0  0  0  0  0  0
   -2.4606  -34.3230   21.9621 C   0  0  0  0  0  0
   -3.3917  -33.9271   21.2730 O   0  0  0  0  0  0
   -0.2729  -35.3559   23.4227 N   0  0  0  0  0  0
   -0.1705  -35.2838   22.0191 C   0  0  0  0  0  0
    0.8362  -35.6369   21.4079 O   0  0  0  0  0  0
   -1.2824  -34.7769   21.3634 N   0  0  0  0  0  0
    0.9254  -35.8668   24.1356 C   0  0  0  0  0  0
    0.7562  -37.2172   24.5520 O   0  0  0  0  0  0
    1.3783  -37.4613   25.8172 C   0  0  0  0  0  0
    0.5142  -38.3501   26.6772 C   0  0  0  0  0  0
   -1.2373  -34.7324   20.3809 H   0  0  0  0  0  0
  1  2  1  0  0  0
  1  6  1  0  0  0
  1  7  1  0  0  0
  2  3  1  0  0  0
  3  4  1  0  0  0
  4  5  1  0  0  0
  5  6  1  0  0  0
  7  8  1  0  0  0
  8  9  2  0  0  0
  8 15  1  0  0  0
  9 10  1  0  0  0
  9 13  1  0  0  0
 10 11  1  0  0  0
 10 12  1  0  0  0
 13 14  2  0  0  0
 13 18  1  0  0  0
 15 16  1  0  0  0
 15 19  1  0  0  0
 16 17  2  0  0  0
 16 18  1  0  0  0
 18 23  1  0  0  0
 19 20  1  0  0  0
 20 21  1  0  0  0
 21 22  1  0  0  0
M  END
>  <CHROM.0>
-175.05854258,-29.78424160,166.55433573

>  <CHROM.1>
138.33813649,-97.59808669,-114.24046642,79.28291597,-143.87046240,139.71129457
-0.99407119,-34.69922243,24.85561536,1.03574510,-0.66418936,1.14494251

>  <FORMUL>
      612    C16 H26 N2 O3 S1

>  <HET>
 612  A 999      22

>  <HETNAM>
     612 6-(cyclohexylsulfanyl)-1-(ethoxymethyl)-5-(1-methylethy
   2 612 l)pyrimidine-2,4(1H,3H)-dione

>  <HETSYN>
     612 TNK-6123

>  <Name>
612.pdb

>  <RI>
4.02261e+07

>  <Rbt.Current_Directory>
/home/malgorzata/Desktop/rDOCK_IFD/test9

>  <Rbt.Executable>
rbdock ($Id: //depot/dev/client3/rdock/2013.1/src/exe/rbdock.cxx#4 $)

>  <Rbt.Library>
libRbt.so (2013.1, Build901 2013/11/27)

>  <Rbt.Parameter_File>
/home/malgorzata/Desktop/rDock_2013.1_src/data/scripts/soft_docking.prm

>  <Rbt.Receptor>
cavity.prm

>  <SCORE>
-29.1076

>  <SCORE.INTER>
-25.1784

>  <SCORE.INTER.CONST>
1

>  <SCORE.INTER.POLAR>
-0.407803

>  <SCORE.INTER.REPUL>
0.0128274

>  <SCORE.INTER.ROT>
6

>  <SCORE.INTER.VDW>
-35.256

>  <SCORE.INTER.norm>
-1.14447

>  <SCORE.INTRA>
0.921051

>  <SCORE.INTRA.DIHEDRAL>
5.25164

>  <SCORE.INTRA.DIHEDRAL.0>
11.8882

>  <SCORE.INTRA.POLAR>
0

>  <SCORE.INTRA.POLAR.0>
0

>  <SCORE.INTRA.REPUL>
0

>  <SCORE.INTRA.REPUL.0>
0

>  <SCORE.INTRA.VDW>
-0.129277

>  <SCORE.INTRA.VDW.0>
-3.04122

>  <SCORE.INTRA.norm>
0.0418659

>  <SCORE.RESTR>
0

>  <SCORE.RESTR.CAVITY>
0

>  <SCORE.RESTR.norm>
0

>  <SCORE.SYSTEM>
-4.85025

>  <SCORE.SYSTEM.CONST>
0

>  <SCORE.SYSTEM.DIHEDRAL>
1.64112

>  <SCORE.SYSTEM.POLAR>
-0.888849

>  <SCORE.SYSTEM.VDW>
-2.64873

>  <SCORE.SYSTEM.norm>
-0.220466

>  <SCORE.heavy>
22

>  <SCORE.norm>
-1.32307

$$$$
612.pdb
  rDOCK(R)          3D
libRbt.so/2013.1/901 2013/11/27
 23 24  0  0  0  0  0  0  0  0999 V2000
    0.0102  -36.8367   25.2057 C   0  0  0  0  0  0
    0.6708  -35.7570   26.0501 C   0  0  0  0  0  0
    2.1489  -35.6833   25.7703 C   0  0  0  0  0  0
    2.8130  -37.0350   26.0137 C   0  0  0  0  0  0
    2.1578  -38.1082   25.1540 C   0  0  0  0  0  0
    0.6769  -38.1825   25.4548 C   0  0  0  0  0  0
   -1.7171  -36.9241   25.7979 S   0  0  0  0  0  0
   -2.6043  -35.3851   25.2473 C   0  0  0  0  0  0
   -2.4974  -34.9234   23.9429 C   0  0  0  0  0  0
   -1.9206  -35.7422   22.7727 C   0  0  0  0  0  0
   -0.4809  -35.4313   22.4371 C   0  0  0  0  0  0
   -2.8202  -35.8152   21.5866 C   0  0  0  0  0  0
   -3.1336  -33.6714   23.5697 C   0  0  0  0  0  0
   -3.0422  -33.1683   22.4574 O   0  0  0  0  0  0
   -3.3421  -34.6661   26.2066 N   0  0  0  0  0  0
   -3.9924  -33.4564   25.8907 C   0  0  0  0  0  0
   -4.6579  -32.8268   26.7105 O   0  0  0  0  0  0
   -3.8416  -33.0199   24.5830 N   0  0  0  0  0  0
   -3.5252  -35.1580   27.5957 C   0  0  0  0  0  0
   -2.4170  -34.8247   28.4242 O   0  0  0  0  0  0
   -1.6688  -33.7286   27.8894 C   0  0  0  0  0  0
   -0.6437  -33.2428   28.8840 C   0  0  0  0  0  0
   -4.2754  -32.1686   24.3458 H   0  0  0  0  0  0
  1  2  1  0  0  0
  1  6  1  0  0  0
  1  7  1  0  0  0
  2  3  1  0  0  0
  3  4  1  0  0  0
  4  5  1  0  0  0
  5  6  1  0  0  0
  7  8  1  0  0  0
  8  9  2  0  0  0
  8 15  1  0  0  0
  9 10  1  0  0  0
  9 13  1  0  0  0
 10 11  1  0  0  0
 10 12  1  0  0  0
 13 14  2  0  0  0
 13 18  1  0  0  0
 15 16  1  0  0  0
 15 19  1  0  0  0
 16 17  2  0  0  0
 16 18  1  0  0  0
 18 23  1  0  0  0
 19 20  1  0  0  0
 20 21  1  0  0  0
 21 22  1  0  0  0
M  END
>  <CHROM.0>
166.84836147,-72.24253596,174.45123688

>  <CHROM.1>
70.91932704,46.80423627,-98.83143106,83.46177929,21.18782179,170.61126989
-1.55299745,-35.23283021,25.39424176,0.08673896,0.59700414,-1.75953334

>  <FORMUL>
      612    C16 H26 N2 O3 S1

>  <HET>
 612  A 999      22

>  <HETNAM>
     612 6-(cyclohexylsulfanyl)-1-(ethoxymethyl)-5-(1-methylethy
   2 612 l)pyrimidine-2,4(1H,3H)-dione

>  <HETSYN>
     612 TNK-6123

>  <Name>
612.pdb

>  <RI>
4.02261e+07

>  <Rbt.Current_Directory>
/home/malgorzata/Desktop/rDOCK_IFD/test9

>  <Rbt.Executable>
rbdock ($Id: //depot/dev/client3/rdock/2013.1/src/exe/rbdock.cxx#4 $)

>  <Rbt.Library>
libRbt.so (2013.1, Build901 2013/11/27)

>  <Rbt.Parameter_File>
/home/malgorzata/Desktop/rDock_2013.1_src/data/scripts/soft_docking.prm

>  <Rbt.Receptor>
cavity.prm

>  <SCORE>
-24.0104

>  <SCORE.INTER>
-23.1967

>  <SCORE.INTER.CONST>
1

>  <SCORE.INTER.POLAR>
-0.849113

>  <SCORE.INTER.REPUL>
0.00120965

>  <SCORE.INTER.ROT>
6

>  <SCORE.INTER.VDW>
-31.7158

>  <SCORE.INTER.norm>
-1.0544

>  <SCORE.INTRA>
3.29276

>  <SCORE.INTRA.DIHEDRAL>
-1.12645

>  <SCORE.INTRA.DIHEDRAL.0>
11.8882

>  <SCORE.INTRA.POLAR>
0

>  <SCORE.INTRA.POLAR.0>
0

>  <SCORE.INTRA.REPUL>
0

>  <SCORE.INTRA.REPUL.0>
0

>  <SCORE.INTRA.VDW>
3.51805

>  <SCORE.INTRA.VDW.0>
-3.04122

>  <SCORE.INTRA.norm>
0.149671

>  <SCORE.RESTR>
0

>  <SCORE.RESTR.CAVITY>
0

>  <SCORE.RESTR.norm>
0

>  <SCORE.SYSTEM>
-4.10643

>  <SCORE.SYSTEM.CONST>
0

>  <SCORE.SYSTEM.DIHEDRAL>
4.80638

>  <SCORE.SYSTEM.POLAR>
-1.08448

>  <SCORE.SYSTEM.VDW>
-2.82239

>  <SCORE.SYSTEM.norm>
-0.186656

>  <SCORE.heavy>
22

>  <SCORE.norm>
-1.09138

$$$$
612.pdb
  rDOCK(R)          3D
libRbt.so/2013.1/901 2013/11/27
 23 24  0  0  0  0  0  0  0  0999 V2000
   -2.6625  -34.5542   25.0790 C   0  0  0  0  0  0
   -2.8380  -33.8792   26.4313 C   0  0  0  0  0  0
   -4.2972  -33.7056   26.7616 C   0  0  0  0  0  0
   -5.0076  -32.9112   25.6700 C   0  0  0  0  0  0
   -4.8417  -33.6003   24.3218 C   0  0  0  0  0  0
   -3.3726  -33.7554   23.9948 C   0  0  0  0  0  0
   -0.8650  -34.5146   24.7485 S   0  0  0  0  0  0
   -0.0905  -36.0096   25.5383 C   0  0  0  0  0  0
   -0.2869  -37.2800   25.0150 C   0  0  0  0  0  0
   -0.8760  -37.5673   23.6212 C   0  0  0  0  0  0
   -0.2497  -36.7745   22.4982 C   0  0  0  0  0  0
   -2.3659  -37.5945   23.5901 C   0  0  0  0  0  0
    0.2615  -38.4344   25.7066 C   0  0  0  0  0  0
    0.0881  -39.5901   25.3421 O   0  0  0  0  0  0
    0.6541  -35.8252   26.7186 N   0  0  0  0  0  0
    1.2216  -36.9098   27.4168 C   0  0  0  0  0  0
    1.8921  -36.7647   28.4370 O   0  0  0  0  0  0
    0.9828  -38.1626   26.8722 N   0  0  0  0  0  0
    0.9322  -34.4773   27.2762 C   0  0  0  0  0  0
   -0.0500  -34.0873   28.2296 O   0  0  0  0  0  0
    0.1544  -32.7443   28.6787 C   0  0  0  0  0  0
   -0.6045  -32.4847   29.9565 C   0  0  0  0  0  0
    1.3577  -38.9353   27.3534 H   0  0  0  0  0  0
  1  2  1  0  0  0
  1  6  1  0  0  0
  1  7  1  0  0  0
  2  3  1  0  0  0
  3  4  1  0  0  0
  4  5  1  0  0  0
  5  6  1  0  0  0
  7  8  1  0  0  0
  8  9  2  0  0  0
  8 15  1  0  0  0
  9 10  1  0  0  0
  9 13  1  0  0  0
 10 11  1  0  0  0
 10 12  1  0  0  0
 13 14  2  0  0  0
 13 18  1  0  0  0
 15 16  1  0  0  0
 15 19  1  0  0  0
 16 17  2  0  0  0
 16 18  1  0  0  0
 18 23  1  0  0  0
 19 20  1  0  0  0
 20 21  1  0  0  0
 21 22  1  0  0  0
M  END
>  <CHROM.0>
132.57533106,-159.85971511,-121.08238248

>  <CHROM.1>
86.48246543,71.80326576,48.73384761,92.53867107,-174.94003711,-162.92951124
-0.99267178,-35.46340436,25.96120575,2.62505589,-0.65875148,0.78195225

>  <FORMUL>
      612    C16 H26 N2 O3 S1

>  <HET>
 612  A 999      22

>  <HETNAM>
     612 6-(cyclohexylsulfanyl)-1-(ethoxymethyl)-5-(1-methylethy
   2 612 l)pyrimidine-2,4(1H,3H)-dione

>  <HETSYN>
     612 TNK-6123

>  <Name>
612.pdb

>  <RI>
4.02261e+07

>  <Rbt.Current_Directory>
/home/malgorzata/Desktop/rDOCK_IFD/test9

>  <Rbt.Executable>
rbdock ($Id: //depot/dev/client3/rdock/2013.1/src/exe/rbdock.cxx#4 $)

>  <Rbt.Library>
libRbt.so (2013.1, Build901 2013/11/27)

>  <Rbt.Parameter_File>
/home/malgorzata/Desktop/rDock_2013.1_src/data/scripts/soft_docking.prm

>  <Rbt.Receptor>
cavity.prm

>  <SCORE>
-31.4716

>  <SCORE.INTER>
-26.4964

>  <SCORE.INTER.CONST>
1

>  <SCORE.INTER.POLAR>
-0.624306

>  <SCORE.INTER.REPUL>
0

>  <SCORE.INTER.ROT>
6

>  <SCORE.INTER.VDW>
-35.7738

>  <SCORE.INTER.norm>
-1.20438

>  <SCORE.INTRA>
-1.27976

>  <SCORE.INTRA.DIHEDRAL>
-4.59374

>  <SCORE.INTRA.DIHEDRAL.0>
11.8882

>  <SCORE.INTRA.POLAR>
0

>  <SCORE.INTRA.POLAR.0>
0

>  <SCORE.INTRA.REPUL>
0

>  <SCORE.INTRA.REPUL.0>
0

>  <SCORE.INTRA.VDW>
-0.361014

>  <SCORE.INTRA.VDW.0>
-3.04122

>  <SCORE.INTRA.norm>
-0.0581711

>  <SCORE.RESTR>
0.157477

>  <SCORE.RESTR.CAVITY>
0.157477

>  <SCORE.RESTR.norm>
0.00715804

>  <SCORE.SYSTEM>
-3.85294

>  <SCORE.SYSTEM.CONST>
0

>  <SCORE.SYSTEM.DIHEDRAL>
6.63101

>  <SCORE.SYSTEM.POLAR>
-1.22915

>  <SCORE.SYSTEM.VDW>
-2.98932

>  <SCORE.SYSTEM.norm>
-0.175133

>  <SCORE.heavy>
22

>  <SCORE.norm>
-1.43053

$$$$
612.pdb
  rDOCK(R)          3D
libRbt.so/2013.1/901 2013/11/27
 23 24  0  0  0  0  0  0  0  0999 V2000
   -2.3376  -34.8928   26.1116 C   0  0  0  0  0  0
   -3.3319  -33.8457   26.5913 C   0  0  0  0  0  0
   -4.2261  -33.3961   25.4658 C   0  0  0  0  0  0
   -3.4002  -32.8573   24.3018 C   0  0  0  0  0  0
   -2.4182  -33.9154   23.8159 C   0  0  0  0  0  0
   -1.5165  -34.3477   24.9512 C   0  0  0  0  0  0
   -1.2207  -35.1842   27.5291 S   0  0  0  0  0  0
    0.5242  -34.8505   26.9790 C   0  0  0  0  0  0
    1.1357  -33.6308   27.2335 C   0  0  0  0  0  0
    0.5968  -32.5734   28.2153 C   0  0  0  0  0  0
    0.3152  -33.0921   29.6058 C   0  0  0  0  0  0
   -0.4901  -31.7244   27.6504 C   0  0  0  0  0  0
    2.4682  -33.3732   26.7143 C   0  0  0  0  0  0
    3.0545  -32.3068   26.8473 O   0  0  0  0  0  0
    1.1901  -35.8494   26.2438 N   0  0  0  0  0  0
    2.4895  -35.6557   25.7341 C   0  0  0  0  0  0
    3.0934  -36.5247   25.1083 O   0  0  0  0  0  0
    3.0547  -34.4158   25.9920 N   0  0  0  0  0  0
    0.5899  -37.1857   26.0007 C   0  0  0  0  0  0
   -0.1482  -37.2197   24.7843 O   0  0  0  0  0  0
   -0.9982  -38.3686   24.7146 C   0  0  0  0  0  0
   -2.0926  -38.1651   23.6963 C   0  0  0  0  0  0
    3.9564  -34.2546   25.6312 H   0  0  0  0  0  0
  1  2  1  0  0  0
  1  6  1  0  0  0
  1  7  1  0  0  0
  2  3  1  0  0  0
  3  4  1  0  0  0
  4  5  1  0  0  0
  5  6  1  0  0  0
  7  8  1  0  0  0
  8  9  2  0  0  0
  8 15  1  0  0  0
  9 10  1  0  0  0
  9 13  1  0  0  0
 10 11  1  0  0  0
 10 12  1  0  0  0
 13 14  2  0  0  0
 13 18  1  0  0  0
 15 16  1  0  0  0
 15 19  1  0  0  0
 16 17  2  0  0  0
 16 18  1  0  0  0
 18 23  1  0  0  0
 19 20  1  0  0  0
 20 21  1  0  0  0
 21 22  1  0  0  0
M  END
>  <CHROM.0>
-167.72285236,163.86644737,-172.27479741

>  <CHROM.1>
-123.08011985,97.66484283,53.03794495,91.48050037,-165.01977886,160.46319796
-0.21931063,-34.74650864,26.15944432,2.67764463,0.21388227,-2.60109434

>  <FORMUL>
      612    C16 H26 N2 O3 S1

>  <HET>
 612  A 999      22

>  <HETNAM>
     612 6-(cyclohexylsulfanyl)-1-(ethoxymethyl)-5-(1-methylethy
   2 612 l)pyrimidine-2,4(1H,3H)-dione

>  <HETSYN>
     612 TNK-6123

>  <Name>
612.pdb

>  <RI>
4.02261e+07

>  <Rbt.Current_Directory>
/home/malgorzata/Desktop/rDOCK_IFD/test9

>  <Rbt.Executable>
rbdock ($Id: //depot/dev/client3/rdock/2013.1/src/exe/rbdock.cxx#4 $)

>  <Rbt.Library>
libRbt.so (2013.1, Build901 2013/11/27)

>  <Rbt.Parameter_File>
/home/malgorzata/Desktop/rDock_2013.1_src/data/scripts/soft_docking.prm

>  <Rbt.Receptor>
cavity.prm

>  <SCORE>
-32.7881

>  <SCORE.INTER>
-25.4363

>  <SCORE.INTER.CONST>
1

>  <SCORE.INTER.POLAR>
0

>  <SCORE.INTER.REPUL>
0

>  <SCORE.INTER.ROT>
6

>  <SCORE.INTER.VDW>
-36.8363

>  <SCORE.INTER.norm>
-1.15619

>  <SCORE.INTRA>
-1.3164

>  <SCORE.INTRA.DIHEDRAL>
-1.89358

>  <SCORE.INTRA.DIHEDRAL.0>
11.8882

>  <SCORE.INTRA.POLAR>
0

>  <SCORE.INTRA.POLAR.0>
0

>  <SCORE.INTRA.REPUL>
0

>  <SCORE.INTRA.REPUL.0>
0

>  <SCORE.INTRA.VDW>
-0.937686

>  <SCORE.INTRA.VDW.0>
-3.04122

>  <SCORE.INTRA.norm>
-0.0598365

>  <SCORE.RESTR>
0

>  <SCORE.RESTR.CAVITY>
0

>  <SCORE.RESTR.norm>
0

>  <SCORE.SYSTEM>
-6.03544

>  <SCORE.SYSTEM.CONST>
0

>  <SCORE.SYSTEM.DIHEDRAL>
0.683436

>  <SCORE.SYSTEM.POLAR>
-0.998812

>  <SCORE.SYSTEM.VDW>
-2.9812

>  <SCORE.SYSTEM.norm>
-0.274338

>  <SCORE.heavy>
22

>  <SCORE.norm>
-1.49037

$$$$
612.pdb
  rDOCK(R)          3D
libRbt.so/2013.1/901 2013/11/27
 23 24  0  0  0  0  0  0  0  0999 V2000
   -4.3527  -33.6478   26.2607 C   0  0  0  0  0  0
   -5.4642  -32.6297   26.0534 C   0  0  0  0  0  0
   -6.6405  -32.9269   26.9459 C   0  0  0  0  0  0
   -7.1579  -34.3416   26.7047 C   0  0  0  0  0  0
   -6.0449  -35.3570   26.9292 C   0  0  0  0  0  0
   -4.8759  -35.0566   26.0171 C   0  0  0  0  0  0
   -3.1006  -33.2630   24.9855 S   0  0  0  0  0  0
   -2.1468  -34.8154   24.6129 C   0  0  0  0  0  0
   -2.1943  -35.4022   23.3560 C   0  0  0  0  0  0
   -2.7562  -34.7186   22.0953 C   0  0  0  0  0  0
   -3.9177  -35.4403   21.4534 C   0  0  0  0  0  0
   -1.7087  -34.2738   21.1328 C   0  0  0  0  0  0
   -1.5064  -36.6611   23.1246 C   0  0  0  0  0  0
   -1.5435  -37.2702   22.0634 O   0  0  0  0  0  0
   -1.4200  -35.4142   25.6592 N   0  0  0  0  0  0
   -0.7213  -36.6250   25.4811 C   0  0  0  0  0  0
   -0.0647  -37.1506   26.3779 O   0  0  0  0  0  0
   -0.8133  -37.1886   24.2173 N   0  0  0  0  0  0
   -1.3003  -34.7868   26.9997 C   0  0  0  0  0  0
    0.0303  -34.3568   27.2646 O   0  0  0  0  0  0
    0.0543  -33.0731   27.8963 C   0  0  0  0  0  0
    1.4641  -32.6837   28.2663 C   0  0  0  0  0  0
   -0.3449  -38.0429   24.0763 H   0  0  0  0  0  0
  1  2  1  0  0  0
  1  6  1  0  0  0
  1  7  1  0  0  0
  2  3  1  0  0  0
  3  4  1  0  0  0
  4  5  1  0  0  0
  5  6  1  0  0  0
  7  8  1  0  0  0
  8  9  2  0  0  0
  8 15  1  0  0  0
  9 10  1  0  0  0
  9 13  1  0  0  0
 10 11  1  0  0  0
 10 12  1  0  0  0
 13 14  2  0  0  0
 13 18  1  0  0  0
 15 16  1  0  0  0
 15 19  1  0  0  0
 16 17  2  0  0  0
 16 18  1  0  0  0
 18 23  1  0  0  0
 19 20  1  0  0  0
 20 21  1  0  0  0
 21 22  1  0  0  0
M  END
>  <CHROM.0>
-127.79612852,7.64354260,-168.37084864

>  <CHROM.1>
-154.00059099,116.01435671,-120.24044549,-112.03650089,138.06409343,175.55129849
-2.54603290,-34.78615059,25.18149152,-2.69021514,0.21513083,-1.99104174

>  <FORMUL>
      612    C16 H26 N2 O3 S1

>  <HET>
 612  A 999      22

>  <HETNAM>
     612 6-(cyclohexylsulfanyl)-1-(ethoxymethyl)-5-(1-methylethy
   2 612 l)pyrimidine-2,4(1H,3H)-dione

>  <HETSYN>
     612 TNK-6123

>  <Name>
612.pdb

>  <RI>
4.02261e+07

>  <Rbt.Current_Directory>
/home/malgorzata/Desktop/rDOCK_IFD/test9

>  <Rbt.Executable>
rbdock ($Id: //depot/dev/client3/rdock/2013.1/src/exe/rbdock.cxx#4 $)

>  <Rbt.Library>
libRbt.so (2013.1, Build901 2013/11/27)

>  <Rbt.Parameter_File>
/home/malgorzata/Desktop/rDock_2013.1_src/data/scripts/soft_docking.prm

>  <Rbt.Receptor>
cavity.prm

>  <SCORE>
-24.7536

>  <SCORE.INTER>
-22.4976

>  <SCORE.INTER.CONST>
1

>  <SCORE.INTER.POLAR>
0

>  <SCORE.INTER.REPUL>
0

>  <SCORE.INTER.ROT>
6

>  <SCORE.INTER.VDW>
-33.8976

>  <SCORE.INTER.norm>
-1.02262

>  <SCORE.INTRA>
0.58533

>  <SCORE.INTRA.DIHEDRAL>
-0.0171121

>  <SCORE.INTRA.DIHEDRAL.0>
11.8882

>  <SCORE.INTRA.POLAR>
0

>  <SCORE.INTRA.POLAR.0>
0

>  <SCORE.INTRA.REPUL>
0

>  <SCORE.INTRA.REPUL.0>
0

>  <SCORE.INTRA.VDW>
0.588752

>  <SCORE.INTRA.VDW.0>
-3.04122

>  <SCORE.INTRA.norm>
0.0266059

>  <SCORE.RESTR>
0.251068

>  <SCORE.RESTR.CAVITY>
0.251068

>  <SCORE.RESTR.norm>
0.0114122

>  <SCORE.SYSTEM>
-3.09247

>  <SCORE.SYSTEM.CONST>
0

>  <SCORE.SYSTEM.DIHEDRAL>
3.08875

>  <SCORE.SYSTEM.POLAR>
-0.646316

>  <SCORE.SYSTEM.VDW>
-2.43937

>  <SCORE.SYSTEM.norm>
-0.140567

>  <SCORE.heavy>
22

>  <SCORE.norm>
-1.12516

$$$$
612.pdb
  rDOCK(R)          3D
libRbt.so/2013.1/901 2013/11/27
 23 24  0  0  0  0  0  0  0  0999 V2000
   -2.4898  -34.0803   23.7080 C   0  0  0  0  0  0
   -3.3011  -33.0218   24.4404 C   0  0  0  0  0  0
   -4.7782  -33.2547   24.2602 C   0  0  0  0  0  0
   -5.1444  -33.2812   22.7795 C   0  0  0  0  0  0
   -4.3406  -34.3534   22.0553 C   0  0  0  0  0  0
   -2.8595  -34.1000   22.2313 C   0  0  0  0  0  0
   -0.7477  -33.5488   23.8652 S   0  0  0  0  0  0
    0.1094  -34.6929   25.0547 C   0  0  0  0  0  0
    0.7672  -34.2023   26.1740 C   0  0  0  0  0  0
    0.6183  -32.7674   26.7137 C   0  0  0  0  0  0
    1.8055  -31.8708   26.4519 C   0  0  0  0  0  0
    0.0995  -32.6988   28.1093 C   0  0  0  0  0  0
    1.4992  -35.1159   27.0349 C   0  0  0  0  0  0
    2.1493  -34.7579   28.0084 O   0  0  0  0  0  0
    0.1238  -36.0688   24.7575 N   0  0  0  0  0  0
    0.8038  -36.9979   25.5701 C   0  0  0  0  0  0
    0.8090  -38.2050   25.3368 O   0  0  0  0  0  0
    1.4658  -36.4631   26.6651 N   0  0  0  0  0  0
   -0.6151  -36.6363   23.6012 C   0  0  0  0  0  0
    0.2137  -36.7511   22.4498 O   0  0  0  0  0  0
   -0.5121  -37.2573   21.3254 C   0  0  0  0  0  0
   -0.6260  -36.2104   20.2451 C   0  0  0  0  0  0
    1.9600  -37.0936   27.2372 H   0  0  0  0  0  0
  1  2  1  0  0  0
  1  6  1  0  0  0
  1  7  1  0  0  0
  2  3  1  0  0  0
  3  4  1  0  0  0
  4  5  1  0  0  0
  5  6  1  0  0  0
  7  8  1  0  0  0
  8  9  2  0  0  0
  8 15  1  0  0  0
  9 10  1  0  0  0
  9 13  1  0  0  0
 10 11  1  0  0  0
 10 12  1  0  0  0
 13 14  2  0  0  0
 13 18  1  0  0  0
 15 16  1  0  0  0
 15 19  1  0  0  0
 16 17  2  0  0  0
 16 18  1  0  0  0
 18 23  1  0  0  0
 19 20  1  0  0  0
 20 21  1  0  0  0
 21 22  1  0  0  0
M  END
>  <CHROM.0>
179.19810137,55.74966957,-133.74107079

>  <CHROM.1>
107.98423553,-124.55280986,-106.01915783,94.22603525,-178.10235967,113.62700525
-0.66844765,-34.78769179,24.52968346,2.64951910,0.63986253,-2.35886726

>  <FORMUL>
      612    C16 H26 N2 O3 S1

>  <HET>
 612  A 999      22

>  <HETNAM>
     612 6-(cyclohexylsulfanyl)-1-(ethoxymethyl)-5-(1-methylethy
   2 612 l)pyrimidine-2,4(1H,3H)-dione

>  <HETSYN>
     612 TNK-6123

>  <Name>
612.pdb

>  <RI>
4.02261e+07

>  <Rbt.Current_Directory>
/home/malgorzata/Desktop/rDOCK_IFD/test9

>  <Rbt.Executable>
rbdock ($Id: //depot/dev/client3/rdock/2013.1/src/exe/rbdock.cxx#4 $)

>  <Rbt.Library>
libRbt.so (2013.1, Build901 2013/11/27)

>  <Rbt.Parameter_File>
/home/malgorzata/Desktop/rDock_2013.1_src/data/scripts/soft_docking.prm

>  <Rbt.Receptor>
cavity.prm

>  <SCORE>
-20.7468

>  <SCORE.INTER>
-17.4846

>  <SCORE.INTER.CONST>
1

>  <SCORE.INTER.POLAR>
0

>  <SCORE.INTER.REPUL>
0

>  <SCORE.INTER.ROT>
6

>  <SCORE.INTER.VDW>
-28.8846

>  <SCORE.INTER.norm>
-0.794755

>  <SCORE.INTRA>
1.3052

>  <SCORE.INTRA.DIHEDRAL>
2.14146

>  <SCORE.INTRA.DIHEDRAL.0>
11.8882

>  <SCORE.INTRA.POLAR>
0

>  <SCORE.INTRA.POLAR.0>
0

>  <SCORE.INTRA.REPUL>
0

>  <SCORE.INTRA.REPUL.0>
0

>  <SCORE.INTRA.VDW>
0.87691

>  <SCORE.INTRA.VDW.0>
-3.04122

>  <SCORE.INTRA.norm>
0.0593274

>  <SCORE.RESTR>
0.184966

>  <SCORE.RESTR.CAVITY>
0.184966

>  <SCORE.RESTR.norm>
0.00840753

>  <SCORE.SYSTEM>
-4.75234

>  <SCORE.SYSTEM.CONST>
0

>  <SCORE.SYSTEM.DIHEDRAL>
5.55425

>  <SCORE.SYSTEM.POLAR>
-1.31346

>  <SCORE.SYSTEM.VDW>
-3.06369

>  <SCORE.SYSTEM.norm>
-0.216015

>  <SCORE.heavy>
22

>  <SCORE.norm>
-0.943035

$$$$
612.pdb
  rDOCK(R)          3D
libRbt.so/2013.1/901 2013/11/27
 23 24  0  0  0  0  0  0  0  0999 V2000
    0.3069  -34.0254   25.1307 C   0  0  0  0  0  0
   -0.5254  -32.8311   25.5734 C   0  0  0  0  0  0
    0.3542  -31.6536   25.9023 C   0  0  0  0  0  0
    1.3735  -32.0236   26.9754 C   0  0  0  0  0  0
    2.2139  -33.2094   26.5198 C   0  0  0  0  0  0
    1.3206  -34.3896   26.2067 C   0  0  0  0  0  0
   -0.8803  -35.4048   24.9584 S   0  0  0  0  0  0
   -2.5705  -34.6895   24.6576 C   0  0  0  0  0  0
   -2.9742  -34.3143   23.3838 C   0  0  0  0  0  0
   -2.2414  -34.7048   22.0865 C   0  0  0  0  0  0
   -2.1029  -33.5857   21.0814 C   0  0  0  0  0  0
   -2.6996  -35.9963   21.5004 C   0  0  0  0  0  0
   -4.2680  -33.6794   23.1983 C   0  0  0  0  0  0
   -4.6752  -33.2702   22.1188 O   0  0  0  0  0  0
   -3.4105  -34.4835   25.7682 N   0  0  0  0  0  0
   -4.6813  -33.8884   25.6389 C   0  0  0  0  0  0
   -5.4359  -33.7202   26.5948 O   0  0  0  0  0  0
   -5.0361  -33.5086   24.3531 N   0  0  0  0  0  0
   -3.0358  -34.9232   27.1361 C   0  0  0  0  0  0
   -1.9262  -34.1889   27.6414 O   0  0  0  0  0  0
   -2.3444  -32.9989   28.3170 C   0  0  0  0  0  0
   -1.1789  -32.3383   29.0108 C   0  0  0  0  0  0
   -5.9140  -33.0768   24.2434 H   0  0  0  0  0  0
  1  2  1  0  0  0
  1  6  1  0  0  0
  1  7  1  0  0  0
  2  3  1  0  0  0
  3  4  1  0  0  0
  4  5  1  0  0  0
  5  6  1  0  0  0
  7  8  1  0  0  0
  8  9  2  0  0  0
  8 15  1  0  0  0
  9 10  1  0  0  0
  9 13  1  0  0  0
 10 11  1  0  0  0
 10 12  1  0  0  0
 13 14  2  0  0  0
 13 18  1  0  0  0
 15 16  1  0  0  0
 15 19  1  0  0  0
 16 17  2  0  0  0
 16 18  1  0  0  0
 18 23  1  0  0  0
 19 20  1  0  0  0
 20 21  1  0  0  0
 21 22  1  0  0  0
M  END
>  <CHROM.0>
165.75358397,3.66256850,-147.90623364

>  <CHROM.1>
24.11560825,83.53352822,-137.05434282,66.98132202,88.54456776,171.99456246
-1.97060852,-33.88447280,25.18218353,-0.83152323,-0.04998312,-1.79150415

>  <FORMUL>
      612    C16 H26 N2 O3 S1

>  <HET>
 612  A 999      22

>  <HETNAM>
     612 6-(cyclohexylsulfanyl)-1-(ethoxymethyl)-5-(1-methylethy
   2 612 l)pyrimidine-2,4(1H,3H)-dione

>  <HETSYN>
     612 TNK-6123

>  <Name>
612.pdb

>  <RI>
4.02261e+07

>  <Rbt.Current_Directory>
/home/malgorzata/Desktop/rDOCK_IFD/test9

>  <Rbt.Executable>
rbdock ($Id: //depot/dev/client3/rdock/2013.1/src/exe/rbdock.cxx#4 $)

>  <Rbt.Library>
libRbt.so (2013.1, Build901 2013/11/27)

>  <Rbt.Parameter_File>
/home/malgorzata/Desktop/rDock_2013.1_src/data/scripts/soft_docking.prm

>  <Rbt.Receptor>
cavity.prm

>  <SCORE>
-28.2538

>  <SCORE.INTER>
-22.2568

>  <SCORE.INTER.CONST>
1

>  <SCORE.INTER.POLAR>
0

>  <SCORE.INTER.REPUL>
0

>  <SCORE.INTER.ROT>
6

>  <SCORE.INTER.VDW>
-33.6568

>  <SCORE.INTER.norm>
-1.01167

>  <SCORE.INTRA>
0.692079

>  <SCORE.INTRA.DIHEDRAL>
-1.66198

>  <SCORE.INTRA.DIHEDRAL.0>
11.8882

>  <SCORE.INTRA.POLAR>
0

>  <SCORE.INTRA.POLAR.0>
0

>  <SCORE.INTRA.REPUL>
0

>  <SCORE.INTRA.REPUL.0>
0

>  <SCORE.INTRA.VDW>
1.02447

>  <SCORE.INTRA.VDW.0>
-3.04122

>  <SCORE.INTRA.norm>
0.0314581

>  <SCORE.RESTR>
0

>  <SCORE.RESTR.CAVITY>
0

>  <SCORE.RESTR.norm>
0

>  <SCORE.SYSTEM>
-6.68907

>  <SCORE.SYSTEM.CONST>
0

>  <SCORE.SYSTEM.DIHEDRAL>
1.62123

>  <SCORE.SYSTEM.POLAR>
-1.36964

>  <SCORE.SYSTEM.VDW>
-2.84292

>  <SCORE.SYSTEM.norm>
-0.304049

>  <SCORE.heavy>
22

>  <SCORE.norm>
-1.28426

$$$$
612.pdb
  rDOCK(R)          3D
libRbt.so/2013.1/901 2013/11/27
 23 24  0  0  0  0  0  0  0  0999 V2000
   -2.1111  -34.3897   24.0145 C   0  0  0  0  0  0
   -3.4755  -34.1209   23.3970 C   0  0  0  0  0  0
   -4.0332  -35.3663   22.7595 C   0  0  0  0  0  0
   -3.0696  -35.9150   21.7118 C   0  0  0  0  0  0
   -1.7107  -36.1970   22.3396 C   0  0  0  0  0  0
   -1.1548  -34.9356   22.9632 C   0  0  0  0  0  0
   -1.5000  -32.7574   24.5660 S   0  0  0  0  0  0
   -1.0974  -32.8638   26.3785 C   0  0  0  0  0  0
    0.2014  -33.0893   26.8128 C   0  0  0  0  0  0
    1.4512  -32.9765   25.9197 C   0  0  0  0  0  0
    2.1060  -34.2960   25.5848 C   0  0  0  0  0  0
    2.4053  -31.9149   26.3490 C   0  0  0  0  0  0
    0.4660  -33.2528   28.2322 C   0  0  0  0  0  0
    1.5715  -33.5078   28.6920 O   0  0  0  0  0  0
   -2.1574  -32.7681   27.2999 N   0  0  0  0  0  0
   -1.9507  -32.9015   28.6875 C   0  0  0  0  0  0
   -2.8614  -32.7999   29.5071 O   0  0  0  0  0  0
   -0.6425  -33.1479   29.0765 N   0  0  0  0  0  0
   -3.5495  -32.4716   26.8765 C   0  0  0  0  0  0
   -4.4943  -33.2887   27.5587 O   0  0  0  0  0  0
   -5.8301  -32.8048   27.3895 C   0  0  0  0  0  0
   -6.6847  -33.8259   26.6802 C   0  0  0  0  0  0
   -0.4791  -33.2596   30.0408 H   0  0  0  0  0  0
  1  2  1  0  0  0
  1  6  1  0  0  0
  1  7  1  0  0  0
  2  3  1  0  0  0
  3  4  1  0  0  0
  4  5  1  0  0  0
  5  6  1  0  0  0
  7  8  1  0  0  0
  8  9  2  0  0  0
  8 15  1  0  0  0
  9 10  1  0  0  0
  9 13  1  0  0  0
 10 11  1  0  0  0
 10 12  1  0  0  0
 13 14  2  0  0  0
 13 18  1  0  0  0
 15 16  1  0  0  0
 15 19  1  0  0  0
 16 17  2  0  0  0
 16 18  1  0  0  0
 18 23  1  0  0  0
 19 20  1  0  0  0
 20 21  1  0  0  0
 21 22  1  0  0  0
M  END
>  <CHROM.0>
160.58379278,9.92979214,-25.46761207

>  <CHROM.1>
124.34810522,97.01343217,-108.87831978,137.22800918,166.59316179,118.02200103
-1.74707967,-33.57331493,25.98463827,-2.32262473,0.04142457,1.20452168

>  <FORMUL>
      612    C16 H26 N2 O3 S1

>  <HET>
 612  A 999      22

>  <HETNAM>
     612 6-(cyclohexylsulfanyl)-1-(ethoxymethyl)-5-(1-methylethy
   2 612 l)pyrimidine-2,4(1H,3H)-dione

>  <HETSYN>
     612 TNK-6123

>  <Name>
612.pdb

>  <RI>
4.02261e+07

>  <Rbt.Current_Directory>
/home/malgorzata/Desktop/rDOCK_IFD/test9

>  <Rbt.Executable>
rbdock ($Id: //depot/dev/client3/rdock/2013.1/src/exe/rbdock.cxx#4 $)

>  <Rbt.Library>
libRbt.so (2013.1, Build901 2013/11/27)

>  <Rbt.Parameter_File>
/home/malgorzata/Desktop/rDock_2013.1_src/data/scripts/soft_docking.prm

>  <Rbt.Receptor>
cavity.prm

>  <SCORE>
-28.3401

>  <SCORE.INTER>
-24.8485

>  <SCORE.INTER.CONST>
1

>  <SCORE.INTER.POLAR>
0

>  <SCORE.INTER.REPUL>
0

>  <SCORE.INTER.ROT>
6

>  <SCORE.INTER.VDW>
-36.2485

>  <SCORE.INTER.norm>
-1.12948

>  <SCORE.INTRA>
1.92364

>  <SCORE.INTRA.DIHEDRAL>
3.49631

>  <SCORE.INTRA.DIHEDRAL.0>
11.8882

>  <SCORE.INTRA.POLAR>
0

>  <SCORE.INTRA.POLAR.0>
0

>  <SCORE.INTRA.REPUL>
0

>  <SCORE.INTRA.REPUL.0>
0

>  <SCORE.INTRA.VDW>
1.22437

>  <SCORE.INTRA.VDW.0>
-3.04122

>  <SCORE.INTRA.norm>
0.087438

>  <SCORE.RESTR>
0.000397622

>  <SCORE.RESTR.CAVITY>
0.000397622

>  <SCORE.RESTR.norm>
1.80737e-05

>  <SCORE.SYSTEM>
-5.41557

>  <SCORE.SYSTEM.CONST>
0

>  <SCORE.SYSTEM.DIHEDRAL>
1.69396

>  <SCORE.SYSTEM.POLAR>
-1.02576

>  <SCORE.SYSTEM.VDW>
-2.77495

>  <SCORE.SYSTEM.norm>
-0.246162

>  <SCORE.heavy>
22

>  <SCORE.norm>
-1.28818

$$$$
612.pdb
  rDOCK(R)          3D
libRbt.so/2013.1/901 2013/11/27
 23 24  0  0  0  0  0  0  0  0999 V2000
   -0.2142  -34.7812   26.2697 C   0  0  0  0  0  0
   -0.8975  -34.4084   27.5771 C   0  0  0  0  0  0
   -0.1707  -33.2813   28.2627 C   0  0  0  0  0  0
    1.2894  -33.6494   28.5072 C   0  0  0  0  0  0
    1.9719  -34.0060   27.1929 C   0  0  0  0  0  0
    1.2417  -35.1484   26.5216 C   0  0  0  0  0  0
   -1.0944  -36.2672   25.6708 S   0  0  0  0  0  0
   -1.9403  -35.8422   24.0700 C   0  0  0  0  0  0
   -3.1269  -35.1224   24.0548 C   0  0  0  0  0  0
   -3.6995  -34.3597   25.2643 C   0  0  0  0  0  0
   -5.2007  -34.4461   25.4089 C   0  0  0  0  0  0
   -3.1506  -32.9832   25.4240 C   0  0  0  0  0  0
   -3.8055  -34.8827   22.7924 C   0  0  0  0  0  0
   -4.8809  -34.3054   22.6984 O   0  0  0  0  0  0
   -1.3748  -36.3219   22.8735 N   0  0  0  0  0  0
   -1.9840  -36.1007   21.6222 C   0  0  0  0  0  0
   -1.4930  -36.4944   20.5660 O   0  0  0  0  0  0
   -3.1786  -35.3970   21.6544 N   0  0  0  0  0  0
   -0.0788  -37.0461   22.8455 C   0  0  0  0  0  0
    1.0234  -36.1522   22.7367 O   0  0  0  0  0  0
    2.2477  -36.8512   22.4921 C   0  0  0  0  0  0
    3.4357  -35.9545   22.7384 C   0  0  0  0  0  0
   -3.6284  -35.2450   20.7920 H   0  0  0  0  0  0
  1  2  1  0  0  0
  1  6  1  0  0  0
  1  7  1  0  0  0
  2  3  1  0  0  0
  3  4  1  0  0  0
  4  5  1  0  0  0
  5  6  1  0  0  0
  7  8  1  0  0  0
  8  9  2  0  0  0
  8 15  1  0  0  0
  9 10  1  0  0  0
  9 13  1  0  0  0
 10 11  1  0  0  0
 10 12  1  0  0  0
 13 14  2  0  0  0
 13 18  1  0  0  0
 15 16  1  0  0  0
 15 19  1  0  0  0
 16 17  2  0  0  0
 16 18  1  0  0  0
 18 23  1  0  0  0
 19 20  1  0  0  0
 20 21  1  0  0  0
 21 22  1  0  0  0
M  END
>  <CHROM.0>
158.24120020,-14.58662023,-133.10776488

>  <CHROM.1>
115.63464822,-77.97577807,-141.09416345,-87.40257035,-170.54885406,-165.08025993
-1.11740515,-35.23141692,24.45882322,0.83197399,-0.20781324,1.17675948

>  <FORMUL>
      612    C16 H26 N2 O3 S1

>  <HET>
 612  A 999      22

>  <HETNAM>
     612 6-(cyclohexylsulfanyl)-1-(ethoxymethyl)-5-(1-methylethy
   2 612 l)pyrimidine-2,4(1H,3H)-dione

>  <HETSYN>
     612 TNK-6123

>  <Name>
612.pdb

>  <RI>
4.02261e+07

>  <Rbt.Current_Directory>
/home/malgorzata/Desktop/rDOCK_IFD/test9

>  <Rbt.Executable>
rbdock ($Id: //depot/dev/client3/rdock/2013.1/src/exe/rbdock.cxx#4 $)

>  <Rbt.Library>
libRbt.so (2013.1, Build901 2013/11/27)

>  <Rbt.Parameter_File>
/home/malgorzata/Desktop/rDock_2013.1_src/data/scripts/soft_docking.prm

>  <Rbt.Receptor>
cavity.prm

>  <SCORE>
-26.8637

>  <SCORE.INTER>
-21.7489

>  <SCORE.INTER.CONST>
1

>  <SCORE.INTER.POLAR>
-0.605392

>  <SCORE.INTER.REPUL>
0

>  <SCORE.INTER.ROT>
6

>  <SCORE.INTER.VDW>
-31.0906

>  <SCORE.INTER.norm>
-0.988586

>  <SCORE.INTRA>
0.781235

>  <SCORE.INTRA.DIHEDRAL>
-2.57291

>  <SCORE.INTRA.DIHEDRAL.0>
11.8882

>  <SCORE.INTRA.POLAR>
0

>  <SCORE.INTRA.POLAR.0>
0

>  <SCORE.INTRA.REPUL>
0

>  <SCORE.INTRA.REPUL.0>
0

>  <SCORE.INTRA.VDW>
1.29582

>  <SCORE.INTRA.VDW.0>
-3.04122

>  <SCORE.INTRA.norm>
0.0355107

>  <SCORE.RESTR>
0

>  <SCORE.RESTR.CAVITY>
0

>  <SCORE.RESTR.norm>
0

>  <SCORE.SYSTEM>
-5.89606

>  <SCORE.SYSTEM.CONST>
0

>  <SCORE.SYSTEM.DIHEDRAL>
3.5726

>  <SCORE.SYSTEM.POLAR>
-1.38567

>  <SCORE.SYSTEM.VDW>
-2.97109

>  <SCORE.SYSTEM.norm>
-0.268003

>  <SCORE.heavy>
22

>  <SCORE.norm>
-1.22108

$$$$
612.pdb
  rDOCK(R)          3D
libRbt.so/2013.1/901 2013/11/27
 23 24  0  0  0  0  0  0  0  0999 V2000
   -1.6755  -33.1905   27.9052 C   0  0  0  0  0  0
   -2.0893  -32.3944   29.1340 C   0  0  0  0  0  0
   -0.8952  -31.7445   29.7823 C   0  0  0  0  0  0
    0.1555  -32.7881   30.1487 C   0  0  0  0  0  0
    0.5771  -33.5707   28.9118 C   0  0  0  0  0  0
   -0.6282  -34.2305   28.2787 C   0  0  0  0  0  0
   -3.1890  -34.0582   27.3591 S   0  0  0  0  0  0
   -3.0664  -34.3544   25.5272 C   0  0  0  0  0  0
   -2.1354  -35.2414   25.0047 C   0  0  0  0  0  0
   -1.3434  -36.2657   25.8389 C   0  0  0  0  0  0
    0.1064  -35.9065   26.0646 C   0  0  0  0  0  0
   -1.5627  -37.6803   25.4235 C   0  0  0  0  0  0
   -2.0088  -35.3838   23.5642 C   0  0  0  0  0  0
   -1.1779  -36.1018   23.0232 O   0  0  0  0  0  0
   -3.9055  -33.6092   24.6774 N   0  0  0  0  0  0
   -3.8344  -33.7243   23.2747 C   0  0  0  0  0  0
   -4.5736  -33.0968   22.5189 O   0  0  0  0  0  0
   -2.8762  -34.6043   22.7944 N   0  0  0  0  0  0
   -4.9507  -32.6938   25.2015 C   0  0  0  0  0  0
   -6.2479  -33.2741   25.1240 O   0  0  0  0  0  0
   -6.9516  -33.1613   26.3648 C   0  0  0  0  0  0
   -7.2233  -34.5237   26.9530 C   0  0  0  0  0  0
   -2.7998  -34.6879   21.8165 H   0  0  0  0  0  0
  1  2  1  0  0  0
  1  6  1  0  0  0
  1  7  1  0  0  0
  2  3  1  0  0  0
  3  4  1  0  0  0
  4  5  1  0  0  0
  5  6  1  0  0  0
  7  8  1  0  0  0
  8  9  2  0  0  0
  8 15  1  0  0  0
  9 10  1  0  0  0
  9 13  1  0  0  0
 10 11  1  0  0  0
 10 12  1  0  0  0
 13 14  2  0  0  0
 13 18  1  0  0  0
 15 16  1  0  0  0
 15 19  1  0  0  0
 16 17  2  0  0  0
 16 18  1  0  0  0
 18 23  1  0  0  0
 19 20  1  0  0  0
 20 21  1  0  0  0
 21 22  1  0  0  0
M  END
>  <CHROM.0>
175.90351361,-14.57161408,-150.12716911

>  <CHROM.1>
152.72117383,68.13952168,-105.47038431,-101.94178201,130.79335876,-115.93819913
-2.76254703,-34.16045635,26.09261631,0.81171582,-0.36700285,1.10109912

>  <FORMUL>
      612    C16 H26 N2 O3 S1

>  <HET>
 612  A 999      22

>  <HETNAM>
     612 6-(cyclohexylsulfanyl)-1-(ethoxymethyl)-5-(1-methylethy
   2 612 l)pyrimidine-2,4(1H,3H)-dione

>  <HETSYN>
     612 TNK-6123

>  <Name>
612.pdb

>  <RI>
4.02261e+07

>  <Rbt.Current_Directory>
/home/malgorzata/Desktop/rDOCK_IFD/test9

>  <Rbt.Executable>
rbdock ($Id: //depot/dev/client3/rdock/2013.1/src/exe/rbdock.cxx#4 $)

>  <Rbt.Library>
libRbt.so (2013.1, Build901 2013/11/27)

>  <Rbt.Parameter_File>
/home/malgorzata/Desktop/rDock_2013.1_src/data/scripts/soft_docking.prm

>  <Rbt.Receptor>
cavity.prm

>  <SCORE>
-28.2497

>  <SCORE.INTER>
-26.8762

>  <SCORE.INTER.CONST>
1

>  <SCORE.INTER.POLAR>
-0.305491

>  <SCORE.INTER.REPUL>
0

>  <SCORE.INTER.ROT>
6

>  <SCORE.INTER.VDW>
-37.2376

>  <SCORE.INTER.norm>
-1.22165

>  <SCORE.INTRA>
5.16374

>  <SCORE.INTRA.DIHEDRAL>
7.9384

>  <SCORE.INTRA.DIHEDRAL.0>
11.8882

>  <SCORE.INTRA.POLAR>
0

>  <SCORE.INTRA.POLAR.0>
0

>  <SCORE.INTRA.REPUL>
0

>  <SCORE.INTRA.REPUL.0>
0

>  <SCORE.INTRA.VDW>
3.57606

>  <SCORE.INTRA.VDW.0>
-3.04122

>  <SCORE.INTRA.norm>
0.234716

>  <SCORE.RESTR>
0.00219713

>  <SCORE.RESTR.CAVITY>
0.00219713

>  <SCORE.RESTR.norm>
9.98694e-05

>  <SCORE.SYSTEM>
-6.5394

>  <SCORE.SYSTEM.CONST>
0

>  <SCORE.SYSTEM.DIHEDRAL>
1.52176

>  <SCORE.SYSTEM.POLAR>
-1.32248

>  <SCORE.SYSTEM.VDW>
-2.80385

>  <SCORE.SYSTEM.norm>
-0.297246

>  <SCORE.heavy>
22

>  <SCORE.norm>
-1.28408

$$$$
