U05.pdb
  rDOCK(R)          3D
libRbt.so/2013.1/901 2013/11/27
 22 24  0  0  0  0  0  0  0  0999 V2000
   -6.2704  -32.6993   22.6345 N   0  0  0  0  0  0
   -7.4894  -32.9961   22.0639 C   0  0  0  0  0  0
   -7.5996  -33.4279   20.7282 C   0  0  0  0  0  0
   -6.3940  -33.5717   19.9451 C   0  0  0  0  0  0
   -5.1645  -33.2842   20.5415 C   0  0  0  0  0  0
   -3.8836  -33.4623   19.7293 C   0  0  0  0  0  0
   -3.9596  -33.2471   18.5204 O   0  0  0  0  0  0
   -2.7166  -33.8888   20.2839 N   0  0  0  0  0  0
   -1.5048  -33.9193   19.4151 C   0  0  0  0  0  0
   -2.4432  -34.2629   21.6815 C   0  0  0  0  0  0
   -1.5372  -35.2959   21.9890 C   0  0  0  0  0  0
   -1.3293  -35.6984   23.3427 C   0  0  0  0  0  0
   -2.0222  -35.0707   24.3872 C   0  0  0  0  0  0
   -1.8401  -35.5123   25.8497 N   0  0  0  0  0  0
   -2.4626  -34.9332   26.7414 O   0  0  0  0  0  0
   -1.0584  -36.4042   26.0576 O   0  0  0  0  0  0
   -2.8990  -34.0324   24.0673 C   0  0  0  0  0  0
   -3.0927  -33.6292   22.7279 C   0  0  0  0  0  0
   -3.8636  -32.5185   22.3916 N   0  0  0  0  0  0
   -3.6455  -31.2239   23.2201 C   0  0  0  0  0  0
   -4.3609  -31.1752   24.5046 C   0  0  0  0  0  0
   -5.1393  -32.8401   21.8797 C   0  0  0  0  0  0
  1  2  2  0  0  0
  1 22  1  0  0  0
  2  3  1  0  0  0
  3  4  2  0  0  0
  4  5  1  0  0  0
  5  6  1  0  0  0
  5 22  2  0  0  0
  6  7  2  0  0  0
  6  8  1  0  0  0
  8  9  1  0  0  0
  8 10  1  0  0  0
 10 11  2  0  0  0
 10 18  1  0  0  0
 11 12  1  0  0  0
 12 13  2  0  0  0
 13 14  1  0  0  0
 13 17  1  0  0  0
 14 15  2  0  0  0
 14 16  2  0  0  0
 17 18  2  0  0  0
 18 19  1  0  0  0
 19 20  1  0  0  0
 19 22  1  0  0  0
 20 21  1  0  0  0
M  END
>  <CHROM.0>
-63.12043165,9.18731560,-178.28881710,6.27497822

>  <CHROM.1>
179.73098076,-82.13143402,-3.62287101,-33.78301654,22.45055263,2.26386439
0.50288527,-1.53386425

>  <FORMUL>
      U05    C15 H14 N4 O3

>  <HET>
 U05  A 999      22

>  <HETNAM>
     U05 6,11-DIHYDRO-11-ETHYL-6-METHYL-9-NITRO-5H-PYRIDO[2,3-B]
   2 U05 [1,5]BENZODIAZEPIN-5-ONE

>  <HETSYN>
     U05 1051U91

>  <Name>
U05.pdb

>  <RI>
4.32499e+07

>  <Rbt.Current_Directory>
/home/malgorzata/Desktop/rDOCK_IFD/Wyniki/10_hiv_rt/IFD

>  <Rbt.Executable>
rbdock ($Id: //depot/dev/client3/rdock/2013.1/src/exe/rbdock.cxx#4 $)

>  <Rbt.Library>
libRbt.so (2013.1, Build901 2013/11/27)

>  <Rbt.Parameter_File>
/home/malgorzata/Desktop/rDock_2013.1_src/data/scripts/dock.prm

>  <Rbt.Receptor>
cavity.prm

>  <SCORE>
0.341668

>  <SCORE.INTER>
0.2041

>  <SCORE.INTER.CONST>
1

>  <SCORE.INTER.POLAR>
0

>  <SCORE.INTER.REPUL>
0

>  <SCORE.INTER.ROT>
2

>  <SCORE.INTER.VDW>
-7.1959

>  <SCORE.INTER.norm>
0.00927729

>  <SCORE.INTRA>
-1.11458

>  <SCORE.INTRA.DIHEDRAL>
-0.966721

>  <SCORE.INTRA.DIHEDRAL.0>
1.34757

>  <SCORE.INTRA.POLAR>
0

>  <SCORE.INTRA.POLAR.0>
0

>  <SCORE.INTRA.REPUL>
0

>  <SCORE.INTRA.REPUL.0>
0

>  <SCORE.INTRA.VDW>
-0.631219

>  <SCORE.INTRA.VDW.0>
0.605696

>  <SCORE.INTRA.norm>
-0.0506627

>  <SCORE.RESTR>
0

>  <SCORE.RESTR.CAVITY>
0

>  <SCORE.RESTR.norm>
0

>  <SCORE.SYSTEM>
1.25215

>  <SCORE.SYSTEM.CONST>
0

>  <SCORE.SYSTEM.DIHEDRAL>
0.202873

>  <SCORE.SYSTEM.VDW>
1.15071

>  <SCORE.SYSTEM.norm>
0.0569158

>  <SCORE.heavy>
22

>  <SCORE.norm>
0.0155304

$$$$
U05.pdb
  rDOCK(R)          3D
libRbt.so/2013.1/901 2013/11/27
 22 24  0  0  0  0  0  0  0  0999 V2000
   -5.8862  -31.9563   23.7294 N   0  0  0  0  0  0
   -7.1626  -31.5625   24.0690 C   0  0  0  0  0  0
   -8.2509  -31.7315   23.1916 C   0  0  0  0  0  0
   -8.0148  -32.3466   21.9058 C   0  0  0  0  0  0
   -6.7197  -32.7564   21.5822 C   0  0  0  0  0  0
   -6.4677  -33.4341   20.2370 C   0  0  0  0  0  0
   -7.1698  -33.0719   19.2940 O   0  0  0  0  0  0
   -5.5542  -34.4297   20.0769 N   0  0  0  0  0  0
   -5.3172  -34.9394   18.6955 C   0  0  0  0  0  0
   -4.6772  -35.0467   21.0859 C   0  0  0  0  0  0
   -4.3540  -36.4156   21.0223 C   0  0  0  0  0  0
   -3.5593  -37.0208   22.0422 C   0  0  0  0  0  0
   -3.0868  -36.2617   23.1218 C   0  0  0  0  0  0
   -2.2589  -36.9009   24.2501 N   0  0  0  0  0  0
   -1.8738  -36.2045   25.1908 O   0  0  0  0  0  0
   -1.9985  -38.0714   24.1407 O   0  0  0  0  0  0
   -3.3965  -34.9007   23.1575 C   0  0  0  0  0  0
   -4.1727  -34.3035   22.1402 C   0  0  0  0  0  0
   -4.3917  -32.9288   22.0847 N   0  0  0  0  0  0
   -3.1661  -32.0034   22.3120 C   0  0  0  0  0  0
   -2.8210  -31.7570   23.7206 C   0  0  0  0  0  0
   -5.6797  -32.5361   22.5087 C   0  0  0  0  0  0
  1  2  2  0  0  0
  1 22  1  0  0  0
  2  3  1  0  0  0
  3  4  2  0  0  0
  4  5  1  0  0  0
  5  6  1  0  0  0
  5 22  2  0  0  0
  6  7  2  0  0  0
  6  8  1  0  0  0
  8  9  1  0  0  0
  8 10  1  0  0  0
 10 11  2  0  0  0
 10 18  1  0  0  0
 11 12  1  0  0  0
 12 13  2  0  0  0
 13 14  1  0  0  0
 13 17  1  0  0  0
 14 15  2  0  0  0
 14 16  2  0  0  0
 17 18  2  0  0  0
 18 19  1  0  0  0
 19 20  1  0  0  0
 19 22  1  0  0  0
 20 21  1  0  0  0
M  END
>  <CHROM.0>
56.69218567,0.13661429,-179.13945252,-179.75413086

>  <CHROM.1>
-179.17543008,-82.52855364,-4.75714279,-34.15003512,22.27075819,-2.97082848
0.80371751,-2.28161140

>  <FORMUL>
      U05    C15 H14 N4 O3

>  <HET>
 U05  A 999      22

>  <HETNAM>
     U05 6,11-DIHYDRO-11-ETHYL-6-METHYL-9-NITRO-5H-PYRIDO[2,3-B]
   2 U05 [1,5]BENZODIAZEPIN-5-ONE

>  <HETSYN>
     U05 1051U91

>  <Name>
U05.pdb

>  <RI>
4.32499e+07

>  <Rbt.Current_Directory>
/home/malgorzata/Desktop/rDOCK_IFD/Wyniki/10_hiv_rt/IFD

>  <Rbt.Executable>
rbdock ($Id: //depot/dev/client3/rdock/2013.1/src/exe/rbdock.cxx#4 $)

>  <Rbt.Library>
libRbt.so (2013.1, Build901 2013/11/27)

>  <Rbt.Parameter_File>
/home/malgorzata/Desktop/rDock_2013.1_src/data/scripts/dock.prm

>  <Rbt.Receptor>
cavity.prm

>  <SCORE>
1.22414

>  <SCORE.INTER>
1.31262

>  <SCORE.INTER.CONST>
1

>  <SCORE.INTER.POLAR>
0

>  <SCORE.INTER.REPUL>
0

>  <SCORE.INTER.ROT>
2

>  <SCORE.INTER.VDW>
-6.08738

>  <SCORE.INTER.norm>
0.0596645

>  <SCORE.INTRA>
-1.10917

>  <SCORE.INTRA.DIHEDRAL>
-0.951452

>  <SCORE.INTRA.DIHEDRAL.0>
1.34757

>  <SCORE.INTRA.POLAR>
0

>  <SCORE.INTRA.POLAR.0>
0

>  <SCORE.INTRA.REPUL>
0

>  <SCORE.INTRA.REPUL.0>
0

>  <SCORE.INTRA.VDW>
-0.633441

>  <SCORE.INTRA.VDW.0>
0.605696

>  <SCORE.INTRA.norm>
-0.0504167

>  <SCORE.RESTR>
0

>  <SCORE.RESTR.CAVITY>
0

>  <SCORE.RESTR.norm>
0

>  <SCORE.SYSTEM>
1.02069

>  <SCORE.SYSTEM.CONST>
0

>  <SCORE.SYSTEM.DIHEDRAL>
0.0270017

>  <SCORE.SYSTEM.VDW>
1.00719

>  <SCORE.SYSTEM.norm>
0.0463951

>  <SCORE.heavy>
22

>  <SCORE.norm>
0.0556429

$$$$
U05.pdb
  rDOCK(R)          3D
libRbt.so/2013.1/901 2013/11/27
 22 24  0  0  0  0  0  0  0  0999 V2000
   -6.2729  -32.7401   22.6382 N   0  0  0  0  0  0
   -7.4899  -33.0351   22.0623 C   0  0  0  0  0  0
   -7.5961  -33.4528   20.7217 C   0  0  0  0  0  0
   -6.3886  -33.5838   19.9394 C   0  0  0  0  0  0
   -5.1612  -33.2983   20.5411 C   0  0  0  0  0  0
   -3.8782  -33.4629   19.7293 C   0  0  0  0  0  0
   -3.9528  -33.2349   18.5227 O   0  0  0  0  0  0
   -2.7107  -33.8910   20.2814 N   0  0  0  0  0  0
   -1.4972  -33.9078   19.4145 C   0  0  0  0  0  0
   -2.4383  -34.2793   21.6754 C   0  0  0  0  0  0
   -1.5291  -35.3123   21.9733 C   0  0  0  0  0  0
   -1.3221  -35.7286   23.3230 C   0  0  0  0  0  0
   -2.0192  -35.1148   24.3729 C   0  0  0  0  0  0
   -1.8381  -35.5714   25.8309 N   0  0  0  0  0  0
   -1.0685  -36.4992   26.0860 O   0  0  0  0  0  0
   -2.4943  -35.0046   26.6663 O   0  0  0  0  0  0
   -2.8993  -34.0762   24.0627 C   0  0  0  0  0  0
   -3.0920  -33.6593   22.7273 C   0  0  0  0  0  0
   -3.8664  -32.5479   22.4017 N   0  0  0  0  0  0
   -3.6546  -31.2615   23.2445 C   0  0  0  0  0  0
   -4.3744  -31.2282   24.5269 C   0  0  0  0  0  0
   -5.1400  -32.8686   21.8840 C   0  0  0  0  0  0
  1  2  2  0  0  0
  1 22  1  0  0  0
  2  3  1  0  0  0
  3  4  2  0  0  0
  4  5  1  0  0  0
  5  6  1  0  0  0
  5 22  2  0  0  0
  6  7  2  0  0  0
  6  8  1  0  0  0
  8  9  1  0  0  0
  8 10  1  0  0  0
 10 11  2  0  0  0
 10 18  1  0  0  0
 11 12  1  0  0  0
 12 13  2  0  0  0
 13 14  1  0  0  0
 13 17  1  0  0  0
 14 15  2  0  0  0
 14 16  2  0  0  0
 17 18  2  0  0  0
 18 19  1  0  0  0
 19 20  1  0  0  0
 19 22  1  0  0  0
 20 21  1  0  0  0
M  END
>  <CHROM.0>
176.88095511,-174.06019480,-0.11164157,6.31166632

>  <CHROM.1>
-0.25620651,-82.24364945,-3.62366380,-33.81396457,22.44701919,2.26093601
0.49993123,-1.51907192

>  <FORMUL>
      U05    C15 H14 N4 O3

>  <HET>
 U05  A 999      22

>  <HETNAM>
     U05 6,11-DIHYDRO-11-ETHYL-6-METHYL-9-NITRO-5H-PYRIDO[2,3-B]
   2 U05 [1,5]BENZODIAZEPIN-5-ONE

>  <HETSYN>
     U05 1051U91

>  <Name>
U05.pdb

>  <RI>
4.32499e+07

>  <Rbt.Current_Directory>
/home/malgorzata/Desktop/rDOCK_IFD/Wyniki/10_hiv_rt/IFD

>  <Rbt.Executable>
rbdock ($Id: //depot/dev/client3/rdock/2013.1/src/exe/rbdock.cxx#4 $)

>  <Rbt.Library>
libRbt.so (2013.1, Build901 2013/11/27)

>  <Rbt.Parameter_File>
/home/malgorzata/Desktop/rDock_2013.1_src/data/scripts/dock.prm

>  <Rbt.Receptor>
cavity.prm

>  <SCORE>
0.43781

>  <SCORE.INTER>
0.402492

>  <SCORE.INTER.CONST>
1

>  <SCORE.INTER.POLAR>
0

>  <SCORE.INTER.REPUL>
0

>  <SCORE.INTER.ROT>
2

>  <SCORE.INTER.VDW>
-6.99751

>  <SCORE.INTER.norm>
0.0182951

>  <SCORE.INTRA>
-1.0798

>  <SCORE.INTRA.DIHEDRAL>
-0.964314

>  <SCORE.INTRA.DIHEDRAL.0>
1.34757

>  <SCORE.INTRA.POLAR>
0

>  <SCORE.INTRA.POLAR.0>
0

>  <SCORE.INTRA.REPUL>
0

>  <SCORE.INTRA.REPUL.0>
0

>  <SCORE.INTRA.VDW>
-0.597648

>  <SCORE.INTRA.VDW.0>
0.605696

>  <SCORE.INTRA.norm>
-0.049082

>  <SCORE.RESTR>
0

>  <SCORE.RESTR.CAVITY>
0

>  <SCORE.RESTR.norm>
0

>  <SCORE.SYSTEM>
1.11512

>  <SCORE.SYSTEM.CONST>
0

>  <SCORE.SYSTEM.DIHEDRAL>
0.128293

>  <SCORE.SYSTEM.VDW>
1.05098

>  <SCORE.SYSTEM.norm>
0.0506874

>  <SCORE.heavy>
22

>  <SCORE.norm>
0.0199005

$$$$
U05.pdb
  rDOCK(R)          3D
libRbt.so/2013.1/901 2013/11/27
 22 24  0  0  0  0  0  0  0  0999 V2000
   -5.8188  -33.4877   22.9179 N   0  0  0  0  0  0
   -6.9365  -34.1722   22.4912 C   0  0  0  0  0  0
   -7.0796  -34.6051   21.1590 C   0  0  0  0  0  0
   -6.0141  -34.3293   20.2230 C   0  0  0  0  0  0
   -4.8801  -33.6502   20.6734 C   0  0  0  0  0  0
   -3.7370  -33.3811   19.6970 C   0  0  0  0  0  0
   -4.0454  -33.1942   18.5208 O   0  0  0  0  0  0
   -2.4303  -33.3952   20.0757 N   0  0  0  0  0  0
   -1.4085  -33.0099   19.0599 C   0  0  0  0  0  0
   -1.8590  -33.6669   21.4053 C   0  0  0  0  0  0
   -0.6285  -34.3380   21.5396 C   0  0  0  0  0  0
   -0.1150  -34.6581   22.8326 C   0  0  0  0  0  0
   -0.8266  -34.3081   23.9885 C   0  0  0  0  0  0
   -0.3092  -34.6746   25.3904 N   0  0  0  0  0  0
   -0.9533  -34.3342   26.3841 O   0  0  0  0  0  0
    0.7384  -35.2652   25.4488 O   0  0  0  0  0  0
   -2.0333  -33.6221   23.8385 C   0  0  0  0  0  0
   -2.5317  -33.2967   22.5579 C   0  0  0  0  0  0
   -3.6659  -32.5069   22.3822 N   0  0  0  0  0  0
   -3.7780  -31.2209   23.2446 C   0  0  0  0  0  0
   -4.3121  -31.4216   24.6005 C   0  0  0  0  0  0
   -4.8201  -33.2342   22.0194 C   0  0  0  0  0  0
  1  2  2  0  0  0
  1 22  1  0  0  0
  2  3  1  0  0  0
  3  4  2  0  0  0
  4  5  1  0  0  0
  5  6  1  0  0  0
  5 22  2  0  0  0
  6  7  2  0  0  0
  6  8  1  0  0  0
  8  9  1  0  0  0
  8 10  1  0  0  0
 10 11  2  0  0  0
 10 18  1  0  0  0
 11 12  1  0  0  0
 12 13  2  0  0  0
 13 14  1  0  0  0
 13 17  1  0  0  0
 14 15  2  0  0  0
 14 16  2  0  0  0
 17 18  2  0  0  0
 18 19  1  0  0  0
 19 20  1  0  0  0
 19 22  1  0  0  0
 20 21  1  0  0  0
M  END
>  <CHROM.0>
-64.05584117,10.33013354,-0.55079071,6.45560859

>  <CHROM.1>
179.02950702,-83.36325527,-3.01495541,-33.61725694,22.34168637,2.41684840
0.16562657,-1.55304118

>  <FORMUL>
      U05    C15 H14 N4 O3

>  <HET>
 U05  A 999      22

>  <HETNAM>
     U05 6,11-DIHYDRO-11-ETHYL-6-METHYL-9-NITRO-5H-PYRIDO[2,3-B]
   2 U05 [1,5]BENZODIAZEPIN-5-ONE

>  <HETSYN>
     U05 1051U91

>  <Name>
U05.pdb

>  <RI>
4.32499e+07

>  <Rbt.Current_Directory>
/home/malgorzata/Desktop/rDOCK_IFD/Wyniki/10_hiv_rt/IFD

>  <Rbt.Executable>
rbdock ($Id: //depot/dev/client3/rdock/2013.1/src/exe/rbdock.cxx#4 $)

>  <Rbt.Library>
libRbt.so (2013.1, Build901 2013/11/27)

>  <Rbt.Parameter_File>
/home/malgorzata/Desktop/rDock_2013.1_src/data/scripts/dock.prm

>  <Rbt.Receptor>
cavity.prm

>  <SCORE>
1.13958

>  <SCORE.INTER>
1.11162

>  <SCORE.INTER.CONST>
1

>  <SCORE.INTER.POLAR>
0

>  <SCORE.INTER.REPUL>
0

>  <SCORE.INTER.ROT>
2

>  <SCORE.INTER.VDW>
-6.28838

>  <SCORE.INTER.norm>
0.0505284

>  <SCORE.INTRA>
-1.10435

>  <SCORE.INTRA.DIHEDRAL>
-0.938437

>  <SCORE.INTRA.DIHEDRAL.0>
1.34757

>  <SCORE.INTRA.POLAR>
0

>  <SCORE.INTRA.POLAR.0>
0

>  <SCORE.INTRA.REPUL>
0

>  <SCORE.INTRA.REPUL.0>
0

>  <SCORE.INTRA.VDW>
-0.635135

>  <SCORE.INTRA.VDW.0>
0.605696

>  <SCORE.INTRA.norm>
-0.0501979

>  <SCORE.RESTR>
0

>  <SCORE.RESTR.CAVITY>
0

>  <SCORE.RESTR.norm>
0

>  <SCORE.SYSTEM>
1.13231

>  <SCORE.SYSTEM.CONST>
0

>  <SCORE.SYSTEM.DIHEDRAL>
0.250315

>  <SCORE.SYSTEM.VDW>
1.00715

>  <SCORE.SYSTEM.norm>
0.0514687

>  <SCORE.heavy>
22

>  <SCORE.norm>
0.0517992

$$$$
U05.pdb
  rDOCK(R)          3D
libRbt.so/2013.1/901 2013/11/27
 22 24  0  0  0  0  0  0  0  0999 V2000
   -6.3387  -32.0411   23.6100 N   0  0  0  0  0  0
   -7.7149  -32.0302   23.5346 C   0  0  0  0  0  0
   -8.4003  -32.4809   22.3901 C   0  0  0  0  0  0
   -7.6307  -32.9777   21.2728 C   0  0  0  0  0  0
   -6.2379  -32.9990   21.3700 C   0  0  0  0  0  0
   -5.4189  -33.5501   20.2047 C   0  0  0  0  0  0
   -5.8778  -33.3809   19.0759 O   0  0  0  0  0  0
   -4.2625  -34.2442   20.3844 N   0  0  0  0  0  0
   -3.4924  -34.6376   19.1693 C   0  0  0  0  0  0
   -3.5934  -34.6098   21.6440 C   0  0  0  0  0  0
   -2.9026  -35.8305   21.7674 C   0  0  0  0  0  0
   -2.3151  -36.2081   23.0125 C   0  0  0  0  0  0
   -2.4152  -35.3692   24.1311 C   0  0  0  0  0  0
   -1.8205  -35.7723   25.4916 N   0  0  0  0  0  0
   -1.2539  -36.8602   25.6089 O   0  0  0  0  0  0
   -1.9666  -34.9985   26.4024 O   0  0  0  0  0  0
   -3.0830  -34.1518   23.9855 C   0  0  0  0  0  0
   -3.6522  -33.7766   22.7488 C   0  0  0  0  0  0
   -4.2138  -32.5185   22.5420 N   0  0  0  0  0  0
   -3.4164  -31.2901   23.0571 C   0  0  0  0  0  0
   -3.5463  -31.0190   24.4970 C   0  0  0  0  0  0
   -5.6254  -32.5137   22.5438 C   0  0  0  0  0  0
  1  2  2  0  0  0
  1 22  1  0  0  0
  2  3  1  0  0  0
  3  4  2  0  0  0
  4  5  1  0  0  0
  5  6  1  0  0  0
  5 22  2  0  0  0
  6  7  2  0  0  0
  6  8  1  0  0  0
  8  9  1  0  0  0
  8 10  1  0  0  0
 10 11  2  0  0  0
 10 18  1  0  0  0
 11 12  1  0  0  0
 12 13  2  0  0  0
 13 14  1  0  0  0
 13 17  1  0  0  0
 14 15  2  0  0  0
 14 16  2  0  0  0
 17 18  2  0  0  0
 18 19  1  0  0  0
 19 20  1  0  0  0
 19 22  1  0  0  0
 20 21  1  0  0  0
M  END
>  <CHROM.0>
-64.41574698,8.68520904,-176.38372254,179.61714888

>  <CHROM.1>
-0.68533733,-80.10526136,-4.26798690,-33.79977451,22.69370486,2.74652579
0.70715827,-1.91134286

>  <FORMUL>
      U05    C15 H14 N4 O3

>  <HET>
 U05  A 999      22

>  <HETNAM>
     U05 6,11-DIHYDRO-11-ETHYL-6-METHYL-9-NITRO-5H-PYRIDO[2,3-B]
   2 U05 [1,5]BENZODIAZEPIN-5-ONE

>  <HETSYN>
     U05 1051U91

>  <Name>
U05.pdb

>  <RI>
4.32499e+07

>  <Rbt.Current_Directory>
/home/malgorzata/Desktop/rDOCK_IFD/Wyniki/10_hiv_rt/IFD

>  <Rbt.Executable>
rbdock ($Id: //depot/dev/client3/rdock/2013.1/src/exe/rbdock.cxx#4 $)

>  <Rbt.Library>
libRbt.so (2013.1, Build901 2013/11/27)

>  <Rbt.Parameter_File>
/home/malgorzata/Desktop/rDock_2013.1_src/data/scripts/dock.prm

>  <Rbt.Receptor>
cavity.prm

>  <SCORE>
1.16757

>  <SCORE.INTER>
1.20186

>  <SCORE.INTER.CONST>
1

>  <SCORE.INTER.POLAR>
0

>  <SCORE.INTER.REPUL>
0

>  <SCORE.INTER.ROT>
2

>  <SCORE.INTER.VDW>
-6.19814

>  <SCORE.INTER.norm>
0.0546299

>  <SCORE.INTRA>
-1.08139

>  <SCORE.INTRA.DIHEDRAL>
-1.00488

>  <SCORE.INTRA.DIHEDRAL.0>
1.34757

>  <SCORE.INTRA.POLAR>
0

>  <SCORE.INTRA.POLAR.0>
0

>  <SCORE.INTRA.REPUL>
0

>  <SCORE.INTRA.REPUL.0>
0

>  <SCORE.INTRA.VDW>
-0.578951

>  <SCORE.INTRA.VDW.0>
0.605696

>  <SCORE.INTRA.norm>
-0.0491541

>  <SCORE.RESTR>
0

>  <SCORE.RESTR.CAVITY>
0

>  <SCORE.RESTR.norm>
0

>  <SCORE.SYSTEM>
1.04711

>  <SCORE.SYSTEM.CONST>
0

>  <SCORE.SYSTEM.DIHEDRAL>
0.175473

>  <SCORE.SYSTEM.VDW>
0.959369

>  <SCORE.SYSTEM.norm>
0.0475957

>  <SCORE.heavy>
22

>  <SCORE.norm>
0.0530715

$$$$
U05.pdb
  rDOCK(R)          3D
libRbt.so/2013.1/901 2013/11/27
 22 24  0  0  0  0  0  0  0  0999 V2000
   -1.7527  -36.5393   21.3235 N   0  0  0  0  0  0
   -1.4199  -37.6853   22.0132 C   0  0  0  0  0  0
   -1.1438  -37.6682   23.3939 C   0  0  0  0  0  0
   -1.2253  -36.4109   24.1010 C   0  0  0  0  0  0
   -1.5805  -35.2611   23.3928 C   0  0  0  0  0  0
   -1.6976  -33.9338   24.1391 C   0  0  0  0  0  0
   -0.9401  -33.7663   25.0939 O   0  0  0  0  0  0
   -2.6226  -32.9897   23.8161 N   0  0  0  0  0  0
   -2.5703  -31.6885   24.5430 C   0  0  0  0  0  0
   -3.6538  -33.0314   22.7659 C   0  0  0  0  0  0
   -4.9108  -32.4283   22.9632 C   0  0  0  0  0  0
   -5.9286  -32.5321   21.9676 C   0  0  0  0  0  0
   -5.6923  -33.2343   20.7776 C   0  0  0  0  0  0
   -6.7864  -33.3888   19.7069 N   0  0  0  0  0  0
   -6.5416  -34.0136   18.6736 O   0  0  0  0  0  0
   -7.8433  -32.8547   19.9250 O   0  0  0  0  0  0
   -4.4329  -33.8061   20.5874 C   0  0  0  0  0  0
   -3.4249  -33.6907   21.5696 C   0  0  0  0  0  0
   -2.1246  -34.1424   21.3546 N   0  0  0  0  0  0
   -1.4646  -33.7896   19.9945 C   0  0  0  0  0  0
   -0.0033  -33.9514   19.9476 C   0  0  0  0  0  0
   -1.8248  -35.3577   22.0074 C   0  0  0  0  0  0
  1  2  2  0  0  0
  1 22  1  0  0  0
  2  3  1  0  0  0
  3  4  2  0  0  0
  4  5  1  0  0  0
  5  6  1  0  0  0
  5 22  2  0  0  0
  6  7  2  0  0  0
  6  8  1  0  0  0
  8  9  1  0  0  0
  8 10  1  0  0  0
 10 11  2  0  0  0
 10 18  1  0  0  0
 11 12  1  0  0  0
 12 13  2  0  0  0
 13 14  1  0  0  0
 13 17  1  0  0  0
 14 15  2  0  0  0
 14 16  2  0  0  0
 17 18  2  0  0  0
 18 19  1  0  0  0
 19 20  1  0  0  0
 19 22  1  0  0  0
 20 21  1  0  0  0
M  END
>  <CHROM.0>
-62.39407117,177.99281319,-175.47052605,-175.37882409

>  <CHROM.1>
-179.97021971,163.89320227,-3.19598425,-34.15323320,21.96107212,-0.16952086
0.60299495,-2.21555898

>  <FORMUL>
      U05    C15 H14 N4 O3

>  <HET>
 U05  A 999      22

>  <HETNAM>
     U05 6,11-DIHYDRO-11-ETHYL-6-METHYL-9-NITRO-5H-PYRIDO[2,3-B]
   2 U05 [1,5]BENZODIAZEPIN-5-ONE

>  <HETSYN>
     U05 1051U91

>  <Name>
U05.pdb

>  <RI>
4.32499e+07

>  <Rbt.Current_Directory>
/home/malgorzata/Desktop/rDOCK_IFD/Wyniki/10_hiv_rt/IFD

>  <Rbt.Executable>
rbdock ($Id: //depot/dev/client3/rdock/2013.1/src/exe/rbdock.cxx#4 $)

>  <Rbt.Library>
libRbt.so (2013.1, Build901 2013/11/27)

>  <Rbt.Parameter_File>
/home/malgorzata/Desktop/rDock_2013.1_src/data/scripts/dock.prm

>  <Rbt.Receptor>
cavity.prm

>  <SCORE>
2.18635

>  <SCORE.INTER>
2.6013

>  <SCORE.INTER.CONST>
1

>  <SCORE.INTER.POLAR>
0

>  <SCORE.INTER.REPUL>
0

>  <SCORE.INTER.ROT>
2

>  <SCORE.INTER.VDW>
-4.7987

>  <SCORE.INTER.norm>
0.118241

>  <SCORE.INTRA>
-1.46672

>  <SCORE.INTRA.DIHEDRAL>
-1.05027

>  <SCORE.INTRA.DIHEDRAL.0>
1.34757

>  <SCORE.INTRA.POLAR>
0

>  <SCORE.INTRA.POLAR.0>
0

>  <SCORE.INTRA.REPUL>
0

>  <SCORE.INTRA.REPUL.0>
0

>  <SCORE.INTRA.VDW>
-0.941579

>  <SCORE.INTRA.VDW.0>
0.605696

>  <SCORE.INTRA.norm>
-0.0666689

>  <SCORE.RESTR>
0.000640466

>  <SCORE.RESTR.CAVITY>
0.000640466

>  <SCORE.RESTR.norm>
2.91121e-05

>  <SCORE.SYSTEM>
1.05113

>  <SCORE.SYSTEM.CONST>
0

>  <SCORE.SYSTEM.DIHEDRAL>
0.0775879

>  <SCORE.SYSTEM.VDW>
1.01233

>  <SCORE.SYSTEM.norm>
0.0477784

>  <SCORE.heavy>
22

>  <SCORE.norm>
0.0993797

$$$$
U05.pdb
  rDOCK(R)          3D
libRbt.so/2013.1/901 2013/11/27
 22 24  0  0  0  0  0  0  0  0999 V2000
   -1.8058  -35.7526   20.8693 N   0  0  0  0  0  0
   -1.2929  -36.9803   21.2288 C   0  0  0  0  0  0
   -0.5996  -37.1707   22.4395 C   0  0  0  0  0  0
   -0.4363  -36.0438   23.3288 C   0  0  0  0  0  0
   -0.9762  -34.8100   22.9595 C   0  0  0  0  0  0
   -0.8334  -33.6214   23.9077 C   0  0  0  0  0  0
    0.1868  -33.5795   24.5940 O   0  0  0  0  0  0
   -1.7977  -32.6712   24.0433 N   0  0  0  0  0  0
   -1.5004  -31.4993   24.9165 C   0  0  0  0  0  0
   -3.1056  -32.5834   23.3727 C   0  0  0  0  0  0
   -4.2285  -32.0631   24.0443 C   0  0  0  0  0  0
   -5.5076  -32.0447   23.4107 C   0  0  0  0  0  0
   -5.6657  -32.5425   22.1099 C   0  0  0  0  0  0
   -7.0415  -32.5650   21.4216 N   0  0  0  0  0  0
   -8.0203  -32.0950   22.0040 O   0  0  0  0  0  0
   -7.0997  -33.0785   20.3340 O   0  0  0  0  0  0
   -4.5377  -33.0330   21.4492 C   0  0  0  0  0  0
   -3.2719  -33.0382   22.0751 C   0  0  0  0  0  0
   -2.1110  -33.4048   21.3977 N   0  0  0  0  0  0
   -1.9028  -32.8200   19.9748 C   0  0  0  0  0  0
   -2.6006  -33.5360   18.8958 C   0  0  0  0  0  0
   -1.6421  -34.6963   21.7217 C   0  0  0  0  0  0
  1  2  2  0  0  0
  1 22  1  0  0  0
  2  3  1  0  0  0
  3  4  2  0  0  0
  4  5  1  0  0  0
  5  6  1  0  0  0
  5 22  2  0  0  0
  6  7  2  0  0  0
  6  8  1  0  0  0
  8  9  1  0  0  0
  8 10  1  0  0  0
 10 11  2  0  0  0
 10 18  1  0  0  0
 11 12  1  0  0  0
 12 13  2  0  0  0
 13 14  1  0  0  0
 13 17  1  0  0  0
 14 15  2  0  0  0
 14 16  2  0  0  0
 17 18  2  0  0  0
 18 19  1  0  0  0
 19 20  1  0  0  0
 19 22  1  0  0  0
 20 21  1  0  0  0
M  END
>  <CHROM.0>
-63.37891827,171.86931832,2.35528209,6.26908189

>  <CHROM.1>
2.51385531,-82.46803967,-3.04457590,-33.58203959,22.26995074,0.07863336,0.44566368
-2.19581923

>  <FORMUL>
      U05    C15 H14 N4 O3

>  <HET>
 U05  A 999      22

>  <HETNAM>
     U05 6,11-DIHYDRO-11-ETHYL-6-METHYL-9-NITRO-5H-PYRIDO[2,3-B]
   2 U05 [1,5]BENZODIAZEPIN-5-ONE

>  <HETSYN>
     U05 1051U91

>  <Name>
U05.pdb

>  <RI>
4.32499e+07

>  <Rbt.Current_Directory>
/home/malgorzata/Desktop/rDOCK_IFD/Wyniki/10_hiv_rt/IFD

>  <Rbt.Executable>
rbdock ($Id: //depot/dev/client3/rdock/2013.1/src/exe/rbdock.cxx#4 $)

>  <Rbt.Library>
libRbt.so (2013.1, Build901 2013/11/27)

>  <Rbt.Parameter_File>
/home/malgorzata/Desktop/rDock_2013.1_src/data/scripts/dock.prm

>  <Rbt.Receptor>
cavity.prm

>  <SCORE>
1.11306

>  <SCORE.INTER>
1.04869

>  <SCORE.INTER.CONST>
1

>  <SCORE.INTER.POLAR>
0

>  <SCORE.INTER.REPUL>
0

>  <SCORE.INTER.ROT>
2

>  <SCORE.INTER.VDW>
-6.35131

>  <SCORE.INTER.norm>
0.0476677

>  <SCORE.INTRA>
-1.06301

>  <SCORE.INTRA.DIHEDRAL>
-0.924117

>  <SCORE.INTRA.DIHEDRAL.0>
1.34757

>  <SCORE.INTRA.POLAR>
0

>  <SCORE.INTRA.POLAR.0>
0

>  <SCORE.INTRA.REPUL>
0

>  <SCORE.INTRA.REPUL.0>
0

>  <SCORE.INTRA.VDW>
-0.600949

>  <SCORE.INTRA.VDW.0>
0.605696

>  <SCORE.INTRA.norm>
-0.0483185

>  <SCORE.RESTR>
0

>  <SCORE.RESTR.CAVITY>
0

>  <SCORE.RESTR.norm>
0

>  <SCORE.SYSTEM>
1.12737

>  <SCORE.SYSTEM.CONST>
0

>  <SCORE.SYSTEM.DIHEDRAL>
0.184607

>  <SCORE.SYSTEM.VDW>
1.03507

>  <SCORE.SYSTEM.norm>
0.0512443

>  <SCORE.heavy>
22

>  <SCORE.norm>
0.0505934

$$$$
U05.pdb
  rDOCK(R)          3D
libRbt.so/2013.1/901 2013/11/27
 22 24  0  0  0  0  0  0  0  0999 V2000
   -6.3059  -32.5126   22.4564 N   0  0  0  0  0  0
   -7.5187  -32.7420   21.8431 C   0  0  0  0  0  0
   -7.6056  -33.1731   20.5055 C   0  0  0  0  0  0
   -6.3829  -33.3893   19.7667 C   0  0  0  0  0  0
   -5.1611  -33.1696   20.4062 C   0  0  0  0  0  0
   -3.8642  -33.4244   19.6410 C   0  0  0  0  0  0
   -3.8845  -33.2110   18.4296 O   0  0  0  0  0  0
   -2.7442  -33.9141   20.2384 N   0  0  0  0  0  0
   -1.5058  -34.0180   19.4138 C   0  0  0  0  0  0
   -2.5428  -34.2967   21.6459 C   0  0  0  0  0  0
   -1.7089  -35.3783   21.9886 C   0  0  0  0  0  0
   -1.5730  -35.7855   23.3500 C   0  0  0  0  0  0
   -2.2658  -35.1143   24.3671 C   0  0  0  0  0  0
   -2.1616  -35.5586   25.8365 N   0  0  0  0  0  0
   -1.5212  -36.5720   26.1211 O   0  0  0  0  0  0
   -2.7486  -34.8939   26.6509 O   0  0  0  0  0  0
   -3.0697  -34.0291   24.0131 C   0  0  0  0  0  0
   -3.1919  -33.6219   22.6665 C   0  0  0  0  0  0
   -3.8855  -32.4707   22.2998 N   0  0  0  0  0  0
   -3.6235  -31.1867   23.1321 C   0  0  0  0  0  0
   -4.3554  -31.1064   24.4056 C   0  0  0  0  0  0
   -5.1584  -32.7214   21.7432 C   0  0  0  0  0  0
  1  2  2  0  0  0
  1 22  1  0  0  0
  2  3  1  0  0  0
  3  4  2  0  0  0
  4  5  1  0  0  0
  5  6  1  0  0  0
  5 22  2  0  0  0
  6  7  2  0  0  0
  6  8  1  0  0  0
  8  9  1  0  0  0
  8 10  1  0  0  0
 10 11  2  0  0  0
 10 18  1  0  0  0
 11 12  1  0  0  0
 12 13  2  0  0  0
 13 14  1  0  0  0
 13 17  1  0  0  0
 14 15  2  0  0  0
 14 16  2  0  0  0
 17 18  2  0  0  0
 18 19  1  0  0  0
 19 20  1  0  0  0
 19 22  1  0  0  0
 20 21  1  0  0  0
M  END
>  <CHROM.0>
56.03563952,56.08549709,-178.65182282,179.85500831

>  <CHROM.1>
-4.36565625,-80.70053513,-3.72114039,-33.74906655,22.37119329,2.21700546
0.56090725,-1.51370713

>  <FORMUL>
      U05    C15 H14 N4 O3

>  <HET>
 U05  A 999      22

>  <HETNAM>
     U05 6,11-DIHYDRO-11-ETHYL-6-METHYL-9-NITRO-5H-PYRIDO[2,3-B]
   2 U05 [1,5]BENZODIAZEPIN-5-ONE

>  <HETSYN>
     U05 1051U91

>  <Name>
U05.pdb

>  <RI>
4.32499e+07

>  <Rbt.Current_Directory>
/home/malgorzata/Desktop/rDOCK_IFD/Wyniki/10_hiv_rt/IFD

>  <Rbt.Executable>
rbdock ($Id: //depot/dev/client3/rdock/2013.1/src/exe/rbdock.cxx#4 $)

>  <Rbt.Library>
libRbt.so (2013.1, Build901 2013/11/27)

>  <Rbt.Parameter_File>
/home/malgorzata/Desktop/rDock_2013.1_src/data/scripts/dock.prm

>  <Rbt.Receptor>
cavity.prm

>  <SCORE>
-0.143627

>  <SCORE.INTER>
-1.10164

>  <SCORE.INTER.CONST>
1

>  <SCORE.INTER.POLAR>
-0.500232

>  <SCORE.INTER.REPUL>
0

>  <SCORE.INTER.ROT>
2

>  <SCORE.INTER.VDW>
-6.80086

>  <SCORE.INTER.norm>
-0.0500747

>  <SCORE.INTRA>
-1.05862

>  <SCORE.INTRA.DIHEDRAL>
-0.936946

>  <SCORE.INTRA.DIHEDRAL.0>
1.34757

>  <SCORE.INTRA.POLAR>
0

>  <SCORE.INTRA.POLAR.0>
0

>  <SCORE.INTRA.REPUL>
0

>  <SCORE.INTRA.REPUL.0>
0

>  <SCORE.INTRA.VDW>
-0.590145

>  <SCORE.INTRA.VDW.0>
0.605696

>  <SCORE.INTRA.norm>
-0.048119

>  <SCORE.RESTR>
0.00672517

>  <SCORE.RESTR.CAVITY>
0.00672517

>  <SCORE.RESTR.norm>
0.000305689

>  <SCORE.SYSTEM>
2.00991

>  <SCORE.SYSTEM.CONST>
0

>  <SCORE.SYSTEM.DIHEDRAL>
3.34546

>  <SCORE.SYSTEM.VDW>
0.337181

>  <SCORE.SYSTEM.norm>
0.0913595

>  <SCORE.heavy>
22

>  <SCORE.norm>
-0.00652852

$$$$
U05.pdb
  rDOCK(R)          3D
libRbt.so/2013.1/901 2013/11/27
 22 24  0  0  0  0  0  0  0  0999 V2000
   -1.4893  -35.1687   21.9187 N   0  0  0  0  0  0
   -0.9288  -36.2736   22.5226 C   0  0  0  0  0  0
   -0.9497  -36.4478   23.9197 C   0  0  0  0  0  0
   -1.5891  -35.4400   24.7339 C   0  0  0  0  0  0
   -2.1679  -34.3345   24.1071 C   0  0  0  0  0  0
   -2.8713  -33.2799   24.9587 C   0  0  0  0  0  0
   -2.4172  -33.0841   26.0851 O   0  0  0  0  0  0
   -3.9798  -32.6146   24.5346 N   0  0  0  0  0  0
   -4.5148  -31.5293   25.4065 C   0  0  0  0  0  0
   -4.7100  -32.7566   23.2638 C   0  0  0  0  0  0
   -6.1097  -32.6125   23.2147 C   0  0  0  0  0  0
   -6.8170  -32.8192   21.9921 C   0  0  0  0  0  0
   -6.1294  -33.1671   20.8211 C   0  0  0  0  0  0
   -6.8751  -33.4292   19.5011 N   0  0  0  0  0  0
   -6.2365  -33.7349   18.4927 O   0  0  0  0  0  0
   -8.0712  -33.2917   19.5129 O   0  0  0  0  0  0
   -4.7393  -33.2826   20.8815 C   0  0  0  0  0  0
   -4.0423  -33.0654   22.0903 C   0  0  0  0  0  0
   -2.6506  -33.0518   22.1518 N   0  0  0  0  0  0
   -1.8976  -32.2542   21.0532 C   0  0  0  0  0  0
   -1.7552  -32.9475   19.7636 C   0  0  0  0  0  0
   -2.0898  -34.2240   22.7035 C   0  0  0  0  0  0
  1  2  2  0  0  0
  1 22  1  0  0  0
  2  3  1  0  0  0
  3  4  2  0  0  0
  4  5  1  0  0  0
  5  6  1  0  0  0
  5 22  2  0  0  0
  6  7  2  0  0  0
  6  8  1  0  0  0
  8  9  1  0  0  0
  8 10  1  0  0  0
 10 11  2  0  0  0
 10 18  1  0  0  0
 11 12  1  0  0  0
 12 13  2  0  0  0
 13 14  1  0  0  0
 13 17  1  0  0  0
 14 15  2  0  0  0
 14 16  2  0  0  0
 17 18  2  0  0  0
 18 19  1  0  0  0
 19 20  1  0  0  0
 19 22  1  0  0  0
 20 21  1  0  0  0
M  END
>  <CHROM.0>
-63.46803511,7.41185905,-2.20869044,6.94362029

>  <CHROM.1>
-179.88880914,-79.87049868,-3.81497408,-33.55525589,22.38615261,-0.62562167
0.44064560,-1.82122003

>  <FORMUL>
      U05    C15 H14 N4 O3

>  <HET>
 U05  A 999      22

>  <HETNAM>
     U05 6,11-DIHYDRO-11-ETHYL-6-METHYL-9-NITRO-5H-PYRIDO[2,3-B]
   2 U05 [1,5]BENZODIAZEPIN-5-ONE

>  <HETSYN>
     U05 1051U91

>  <Name>
U05.pdb

>  <RI>
4.32499e+07

>  <Rbt.Current_Directory>
/home/malgorzata/Desktop/rDOCK_IFD/Wyniki/10_hiv_rt/IFD

>  <Rbt.Executable>
rbdock ($Id: //depot/dev/client3/rdock/2013.1/src/exe/rbdock.cxx#4 $)

>  <Rbt.Library>
libRbt.so (2013.1, Build901 2013/11/27)

>  <Rbt.Parameter_File>
/home/malgorzata/Desktop/rDock_2013.1_src/data/scripts/dock.prm

>  <Rbt.Receptor>
cavity.prm

>  <SCORE>
0.915221

>  <SCORE.INTER>
0.911769

>  <SCORE.INTER.CONST>
1

>  <SCORE.INTER.POLAR>
0

>  <SCORE.INTER.REPUL>
0

>  <SCORE.INTER.ROT>
2

>  <SCORE.INTER.VDW>
-6.48823

>  <SCORE.INTER.norm>
0.0414441

>  <SCORE.INTRA>
-1.1136

>  <SCORE.INTRA.DIHEDRAL>
-1.00728

>  <SCORE.INTRA.DIHEDRAL.0>
1.34757

>  <SCORE.INTRA.POLAR>
0

>  <SCORE.INTRA.POLAR.0>
0

>  <SCORE.INTRA.REPUL>
0

>  <SCORE.INTRA.REPUL.0>
0

>  <SCORE.INTRA.VDW>
-0.60996

>  <SCORE.INTRA.VDW.0>
0.605696

>  <SCORE.INTRA.norm>
-0.0506183

>  <SCORE.RESTR>
0

>  <SCORE.RESTR.CAVITY>
0

>  <SCORE.RESTR.norm>
0

>  <SCORE.SYSTEM>
1.11705

>  <SCORE.SYSTEM.CONST>
0

>  <SCORE.SYSTEM.DIHEDRAL>
0.18107

>  <SCORE.SYSTEM.VDW>
1.02652

>  <SCORE.SYSTEM.norm>
0.0507752

>  <SCORE.heavy>
22

>  <SCORE.norm>
0.041601

$$$$
U05.pdb
  rDOCK(R)          3D
libRbt.so/2013.1/901 2013/11/27
 22 24  0  0  0  0  0  0  0  0999 V2000
   -1.8774  -34.4994   21.2170 N   0  0  0  0  0  0
   -1.3755  -34.1655   19.9775 C   0  0  0  0  0  0
   -2.1735  -33.5519   18.9930 C   0  0  0  0  0  0
   -3.5534  -33.2575   19.3044 C   0  0  0  0  0  0
   -4.0435  -33.5856   20.5701 C   0  0  0  0  0  0
   -5.4927  -33.2508   20.9168 C   0  0  0  0  0  0
   -6.3070  -33.2940   19.9956 O   0  0  0  0  0  0
   -5.8790  -32.8688   22.1642 N   0  0  0  0  0  0
   -7.3370  -32.6741   22.4107 C   0  0  0  0  0  0
   -5.0533  -32.6885   23.3699 C   0  0  0  0  0  0
   -5.3518  -31.6800   24.3059 C   0  0  0  0  0  0
   -4.5067  -31.4676   25.4367 C   0  0  0  0  0  0
   -3.3677  -32.2605   25.6339 C   0  0  0  0  0  0
   -2.4238  -32.0259   26.8260 N   0  0  0  0  0  0
   -2.6594  -31.1110   27.6169 O   0  0  0  0  0  0
   -1.4637  -32.7474   26.9127 O   0  0  0  0  0  0
   -3.0991  -33.2716   24.7092 C   0  0  0  0  0  0
   -3.9444  -33.4862   23.5986 C   0  0  0  0  0  0
   -3.7711  -34.5629   22.7316 N   0  0  0  0  0  0
   -3.5095  -35.9543   23.3686 C   0  0  0  0  0  0
   -2.1249  -36.1925   23.8043 C   0  0  0  0  0  0
   -3.1852  -34.2147   21.4954 C   0  0  0  0  0  0
  1  2  2  0  0  0
  1 22  1  0  0  0
  2  3  1  0  0  0
  3  4  2  0  0  0
  4  5  1  0  0  0
  5  6  1  0  0  0
  5 22  2  0  0  0
  6  7  2  0  0  0
  6  8  1  0  0  0
  8  9  1  0  0  0
  8 10  1  0  0  0
 10 11  2  0  0  0
 10 18  1  0  0  0
 11 12  1  0  0  0
 12 13  2  0  0  0
 13 14  1  0  0  0
 13 17  1  0  0  0
 14 15  2  0  0  0
 14 16  2  0  0  0
 17 18  2  0  0  0
 18 19  1  0  0  0
 19 20  1  0  0  0
 19 22  1  0  0  0
 20 21  1  0  0  0
M  END
>  <CHROM.0>
-62.21201539,169.69372995,-2.64694558,179.54633423

>  <CHROM.1>
-1.01834151,-80.19873895,-3.74201720,-33.30959506,23.04120866,-1.76519322
-0.43959006,1.23622673

>  <FORMUL>
      U05    C15 H14 N4 O3

>  <HET>
 U05  A 999      22

>  <HETNAM>
     U05 6,11-DIHYDRO-11-ETHYL-6-METHYL-9-NITRO-5H-PYRIDO[2,3-B]
   2 U05 [1,5]BENZODIAZEPIN-5-ONE

>  <HETSYN>
     U05 1051U91

>  <Name>
U05.pdb

>  <RI>
4.32499e+07

>  <Rbt.Current_Directory>
/home/malgorzata/Desktop/rDOCK_IFD/Wyniki/10_hiv_rt/IFD

>  <Rbt.Executable>
rbdock ($Id: //depot/dev/client3/rdock/2013.1/src/exe/rbdock.cxx#4 $)

>  <Rbt.Library>
libRbt.so (2013.1, Build901 2013/11/27)

>  <Rbt.Parameter_File>
/home/malgorzata/Desktop/rDock_2013.1_src/data/scripts/dock.prm

>  <Rbt.Receptor>
cavity.prm

>  <SCORE>
1.4434

>  <SCORE.INTER>
1.5905

>  <SCORE.INTER.CONST>
1

>  <SCORE.INTER.POLAR>
0

>  <SCORE.INTER.REPUL>
0

>  <SCORE.INTER.ROT>
2

>  <SCORE.INTER.VDW>
-5.8095

>  <SCORE.INTER.norm>
0.0722955

>  <SCORE.INTRA>
-1.08143

>  <SCORE.INTRA.DIHEDRAL>
-1.00244

>  <SCORE.INTRA.DIHEDRAL.0>
1.34757

>  <SCORE.INTRA.POLAR>
0

>  <SCORE.INTRA.POLAR.0>
0

>  <SCORE.INTRA.REPUL>
0

>  <SCORE.INTRA.REPUL.0>
0

>  <SCORE.INTRA.VDW>
-0.58021

>  <SCORE.INTRA.VDW.0>
0.605696

>  <SCORE.INTRA.norm>
-0.049156

>  <SCORE.RESTR>
0

>  <SCORE.RESTR.CAVITY>
0

>  <SCORE.RESTR.norm>
0

>  <SCORE.SYSTEM>
0.934331

>  <SCORE.SYSTEM.CONST>
0

>  <SCORE.SYSTEM.DIHEDRAL>
0.17605

>  <SCORE.SYSTEM.VDW>
0.846305

>  <SCORE.SYSTEM.norm>
0.0424696

>  <SCORE.heavy>
22

>  <SCORE.norm>
0.065609

$$$$
