U05.pdb
  rDOCK(R)          3D
libRbt.so/2013.1/901 2013/11/27
 22 24  0  0  0  0  0  0  0  0999 V2000
   -6.6567  -32.0377   22.3553 N   0  0  0  0  0  0
   -7.6736  -32.2667   21.4536 C   0  0  0  0  0  0
   -7.4352  -32.8604   20.1992 C   0  0  0  0  0  0
   -6.0847  -33.2474   19.8616 C   0  0  0  0  0  0
   -5.0673  -33.0251   20.7919 C   0  0  0  0  0  0
   -3.6424  -33.4584   20.4541 C   0  0  0  0  0  0
   -3.3120  -33.4022   19.2704 O   0  0  0  0  0  0
   -2.7797  -33.9372   21.3910 N   0  0  0  0  0  0
   -1.3800  -34.2250   20.9640 C   0  0  0  0  0  0
   -3.0063  -34.1469   22.8307 C   0  0  0  0  0  0
   -2.4058  -35.2260   23.5070 C   0  0  0  0  0  0
   -2.6850  -35.4620   24.8870 C   0  0  0  0  0  0
   -3.5596  -34.6226   25.5908 C   0  0  0  0  0  0
   -3.9021  -34.8793   27.0686 N   0  0  0  0  0  0
   -4.6606  -34.1087   27.6594 O   0  0  0  0  0  0
   -3.3771  -35.8268   27.5942 O   0  0  0  0  0  0
   -4.1280  -33.5432   24.9116 C   0  0  0  0  0  0
   -3.8397  -33.3062   23.5497 C   0  0  0  0  0  0
   -4.2927  -32.1702   22.8824 N   0  0  0  0  0  0
   -4.1434  -30.8088   23.6135 C   0  0  0  0  0  0
   -2.7580  -30.3718   23.8453 C   0  0  0  0  0  0
   -5.3845  -32.4092   22.0201 C   0  0  0  0  0  0
  1  2  2  0  0  0
  1 22  1  0  0  0
  2  3  1  0  0  0
  3  4  2  0  0  0
  4  5  1  0  0  0
  5  6  1  0  0  0
  5 22  2  0  0  0
  6  7  2  0  0  0
  6  8  1  0  0  0
  8  9  1  0  0  0
  8 10  1  0  0  0
 10 11  2  0  0  0
 10 18  1  0  0  0
 11 12  1  0  0  0
 12 13  2  0  0  0
 13 14  1  0  0  0
 13 17  1  0  0  0
 14 15  2  0  0  0
 14 16  2  0  0  0
 17 18  2  0  0  0
 18 19  1  0  0  0
 19 20  1  0  0  0
 19 22  1  0  0  0
 20 21  1  0  0  0
M  END
>  <CHROM.0>
56.64814570,53.79024627,-2.28841552,-68.48782402

>  <CHROM.1>
178.99299070,65.44491146,-4.15379184,-33.42752688,23.09478968,1.85896969
0.49955079,-1.40069719

>  <FORMUL>
      U05    C15 H14 N4 O3

>  <HET>
 U05  A 999      22

>  <HETNAM>
     U05 6,11-DIHYDRO-11-ETHYL-6-METHYL-9-NITRO-5H-PYRIDO[2,3-B]
   2 U05 [1,5]BENZODIAZEPIN-5-ONE

>  <HETSYN>
     U05 1051U91

>  <Name>
U05.pdb

>  <RI>
1.93237e+07

>  <Rbt.Current_Directory>
/home/malgorzata/Desktop/rDOCK_IFD/Wyniki/10_hiv_rt/IFD

>  <Rbt.Executable>
rbdock ($Id: //depot/dev/client3/rdock/2013.1/src/exe/rbdock.cxx#4 $)

>  <Rbt.Library>
libRbt.so (2013.1, Build901 2013/11/27)

>  <Rbt.Parameter_File>
/home/malgorzata/Desktop/rDock_2013.1_src/data/scripts/dock.prm

>  <Rbt.Receptor>
cavity.prm

>  <SCORE>
-2.98642

>  <SCORE.INTER>
-2.42967

>  <SCORE.INTER.CONST>
1

>  <SCORE.INTER.POLAR>
-1.05384

>  <SCORE.INTER.REPUL>
0

>  <SCORE.INTER.ROT>
2

>  <SCORE.INTER.VDW>
-6.24663

>  <SCORE.INTER.norm>
-0.11044

>  <SCORE.INTRA>
-1.36919

>  <SCORE.INTRA.DIHEDRAL>
-0.647736

>  <SCORE.INTRA.DIHEDRAL.0>
1.34757

>  <SCORE.INTRA.POLAR>
0

>  <SCORE.INTRA.POLAR.0>
0

>  <SCORE.INTRA.REPUL>
0

>  <SCORE.INTRA.REPUL.0>
0

>  <SCORE.INTRA.VDW>
-1.04532

>  <SCORE.INTRA.VDW.0>
0.605696

>  <SCORE.INTRA.norm>
-0.0622358

>  <SCORE.RESTR>
0

>  <SCORE.RESTR.CAVITY>
0

>  <SCORE.RESTR.norm>
0

>  <SCORE.SYSTEM>
0.812434

>  <SCORE.SYSTEM.CONST>
0

>  <SCORE.SYSTEM.DIHEDRAL>
7.3133

>  <SCORE.SYSTEM.POLAR>
-0.646245

>  <SCORE.SYSTEM.VDW>
-0.646985

>  <SCORE.SYSTEM.norm>
0.0369288

>  <SCORE.heavy>
22

>  <SCORE.norm>
-0.135747

$$$$
U05.pdb
  rDOCK(R)          3D
libRbt.so/2013.1/901 2013/11/27
 22 24  0  0  0  0  0  0  0  0999 V2000
   -6.6822  -32.0135   22.3609 N   0  0  0  0  0  0
   -7.7186  -32.2245   21.4772 C   0  0  0  0  0  0
   -7.5119  -32.8174   20.2169 C   0  0  0  0  0  0
   -6.1737  -33.2232   19.8535 C   0  0  0  0  0  0
   -5.1364  -33.0192   20.7658 C   0  0  0  0  0  0
   -3.7244  -33.4724   20.4008 C   0  0  0  0  0  0
   -3.4148  -33.4172   19.2114 O   0  0  0  0  0  0
   -2.8520  -33.9670   21.3203 N   0  0  0  0  0  0
   -1.4648  -34.2741   20.8670 C   0  0  0  0  0  0
   -3.0555  -34.1782   22.7633 C   0  0  0  0  0  0
   -2.4590  -35.2683   23.4252 C   0  0  0  0  0  0
   -2.7165  -35.5048   24.8093 C   0  0  0  0  0  0
   -3.5656  -34.6548   25.5315 C   0  0  0  0  0  0
   -3.8849  -34.9113   27.0145 N   0  0  0  0  0  0
   -3.3871  -35.8839   27.5840 O   0  0  0  0  0  0
   -4.6458  -34.1467   27.5495 O   0  0  0  0  0  0
   -4.1302  -33.5649   24.8661 C   0  0  0  0  0  0
   -3.8632  -33.3277   23.4999 C   0  0  0  0  0  0
   -4.3112  -32.1828   22.8445 N   0  0  0  0  0  0
   -4.1285  -30.8262   23.5769 C   0  0  0  0  0  0
   -2.7328  -30.4254   23.8122 C   0  0  0  0  0  0
   -5.4219  -32.4027   22.0015 C   0  0  0  0  0  0
  1  2  2  0  0  0
  1 22  1  0  0  0
  2  3  1  0  0  0
  3  4  2  0  0  0
  4  5  1  0  0  0
  5  6  1  0  0  0
  5 22  2  0  0  0
  6  7  2  0  0  0
  6  8  1  0  0  0
  8  9  1  0  0  0
  8 10  1  0  0  0
 10 11  2  0  0  0
 10 18  1  0  0  0
 11 12  1  0  0  0
 12 13  2  0  0  0
 13 14  1  0  0  0
 13 17  1  0  0  0
 14 15  2  0  0  0
 14 16  2  0  0  0
 17 18  2  0  0  0
 18 19  1  0  0  0
 19 20  1  0  0  0
 19 22  1  0  0  0
 20 21  1  0  0  0
M  END
>  <CHROM.0>
176.95894145,52.69169367,-179.93592740,-71.03401871

>  <CHROM.1>
-0.05376543,64.10134461,-4.18974037,-33.44516527,23.05097253,1.87510772,0.51444294
-1.40303305

>  <FORMUL>
      U05    C15 H14 N4 O3

>  <HET>
 U05  A 999      22

>  <HETNAM>
     U05 6,11-DIHYDRO-11-ETHYL-6-METHYL-9-NITRO-5H-PYRIDO[2,3-B]
   2 U05 [1,5]BENZODIAZEPIN-5-ONE

>  <HETSYN>
     U05 1051U91

>  <Name>
U05.pdb

>  <RI>
1.93237e+07

>  <Rbt.Current_Directory>
/home/malgorzata/Desktop/rDOCK_IFD/Wyniki/10_hiv_rt/IFD

>  <Rbt.Executable>
rbdock ($Id: //depot/dev/client3/rdock/2013.1/src/exe/rbdock.cxx#4 $)

>  <Rbt.Library>
libRbt.so (2013.1, Build901 2013/11/27)

>  <Rbt.Parameter_File>
/home/malgorzata/Desktop/rDock_2013.1_src/data/scripts/dock.prm

>  <Rbt.Receptor>
cavity.prm

>  <SCORE>
-2.85744

>  <SCORE.INTER>
-2.42495

>  <SCORE.INTER.CONST>
1

>  <SCORE.INTER.POLAR>
-1.0494

>  <SCORE.INTER.REPUL>
0

>  <SCORE.INTER.ROT>
2

>  <SCORE.INTER.VDW>
-6.257

>  <SCORE.INTER.norm>
-0.110225

>  <SCORE.INTRA>
-1.33618

>  <SCORE.INTRA.DIHEDRAL>
-0.700374

>  <SCORE.INTRA.DIHEDRAL.0>
1.34757

>  <SCORE.INTRA.POLAR>
0

>  <SCORE.INTRA.POLAR.0>
0

>  <SCORE.INTRA.REPUL>
0

>  <SCORE.INTRA.REPUL.0>
0

>  <SCORE.INTRA.VDW>
-0.985995

>  <SCORE.INTRA.VDW.0>
0.605696

>  <SCORE.INTRA.norm>
-0.0607355

>  <SCORE.RESTR>
0

>  <SCORE.RESTR.CAVITY>
0

>  <SCORE.RESTR.norm>
0

>  <SCORE.SYSTEM>
0.903694

>  <SCORE.SYSTEM.CONST>
0

>  <SCORE.SYSTEM.DIHEDRAL>
7.35127

>  <SCORE.SYSTEM.POLAR>
-0.666274

>  <SCORE.SYSTEM.VDW>
-0.506609

>  <SCORE.SYSTEM.norm>
0.041077

>  <SCORE.heavy>
22

>  <SCORE.norm>
-0.129883

$$$$
U05.pdb
  rDOCK(R)          3D
libRbt.so/2013.1/901 2013/11/27
 22 24  0  0  0  0  0  0  0  0999 V2000
   -6.7794  -31.6139   23.6546 N   0  0  0  0  0  0
   -7.8702  -32.0495   22.9335 C   0  0  0  0  0  0
   -7.7345  -32.6288   21.6573 C   0  0  0  0  0  0
   -6.4092  -32.7770   21.1014 C   0  0  0  0  0  0
   -5.3120  -32.3471   21.8506 C   0  0  0  0  0  0
   -3.9060  -32.5274   21.2822 C   0  0  0  0  0  0
   -3.7881  -32.4491   20.0602 O   0  0  0  0  0  0
   -2.8300  -32.8144   22.0640 N   0  0  0  0  0  0
   -1.4895  -32.8590   21.4117 C   0  0  0  0  0  0
   -2.7777  -33.0172   23.5214 C   0  0  0  0  0  0
   -1.8889  -33.9496   24.0898 C   0  0  0  0  0  0
   -1.8925  -34.1896   25.4970 C   0  0  0  0  0  0
   -2.7794  -33.4998   26.3352 C   0  0  0  0  0  0
   -2.8248  -33.7685   27.8494 N   0  0  0  0  0  0
   -3.6192  -33.1435   28.5541 O   0  0  0  0  0  0
   -2.0437  -34.5748   28.2847 O   0  0  0  0  0  0
   -3.6377  -32.5615   25.7588 C   0  0  0  0  0  0
   -3.6225  -32.3184   24.3678 C   0  0  0  0  0  0
   -4.3771  -31.3032   23.7840 N   0  0  0  0  0  0
   -4.3619  -29.9154   24.4796 C   0  0  0  0  0  0
   -3.0583  -29.2339   24.4874 C   0  0  0  0  0  0
   -5.5324  -31.7608   23.1140 C   0  0  0  0  0  0
  1  2  2  0  0  0
  1 22  1  0  0  0
  2  3  1  0  0  0
  3  4  2  0  0  0
  4  5  1  0  0  0
  5  6  1  0  0  0
  5 22  2  0  0  0
  6  7  2  0  0  0
  6  8  1  0  0  0
  8  9  1  0  0  0
  8 10  1  0  0  0
 10 11  2  0  0  0
 10 18  1  0  0  0
 11 12  1  0  0  0
 12 13  2  0  0  0
 13 14  1  0  0  0
 13 17  1  0  0  0
 14 15  2  0  0  0
 14 16  2  0  0  0
 17 18  2  0  0  0
 18 19  1  0  0  0
 19 20  1  0  0  0
 19 22  1  0  0  0
 20 21  1  0  0  0
M  END
>  <CHROM.0>
-63.44498473,5.60336778,179.34409803,-69.03829140

>  <CHROM.1>
-179.90776007,65.03401906,-3.97869198,-32.50823308,23.97154466,2.06274974
0.33623759,-1.49965290

>  <FORMUL>
      U05    C15 H14 N4 O3

>  <HET>
 U05  A 999      22

>  <HETNAM>
     U05 6,11-DIHYDRO-11-ETHYL-6-METHYL-9-NITRO-5H-PYRIDO[2,3-B]
   2 U05 [1,5]BENZODIAZEPIN-5-ONE

>  <HETSYN>
     U05 1051U91

>  <Name>
U05.pdb

>  <RI>
1.93237e+07

>  <Rbt.Current_Directory>
/home/malgorzata/Desktop/rDOCK_IFD/Wyniki/10_hiv_rt/IFD

>  <Rbt.Executable>
rbdock ($Id: //depot/dev/client3/rdock/2013.1/src/exe/rbdock.cxx#4 $)

>  <Rbt.Library>
libRbt.so (2013.1, Build901 2013/11/27)

>  <Rbt.Parameter_File>
/home/malgorzata/Desktop/rDock_2013.1_src/data/scripts/dock.prm

>  <Rbt.Receptor>
cavity.prm

>  <SCORE>
-1.09779

>  <SCORE.INTER>
0.25967

>  <SCORE.INTER.CONST>
1

>  <SCORE.INTER.POLAR>
0

>  <SCORE.INTER.REPUL>
0

>  <SCORE.INTER.ROT>
2

>  <SCORE.INTER.VDW>
-7.14033

>  <SCORE.INTER.norm>
0.0118032

>  <SCORE.INTRA>
-1.37016

>  <SCORE.INTRA.DIHEDRAL>
-0.663614

>  <SCORE.INTRA.DIHEDRAL.0>
1.34757

>  <SCORE.INTRA.POLAR>
0

>  <SCORE.INTRA.POLAR.0>
0

>  <SCORE.INTRA.REPUL>
0

>  <SCORE.INTRA.REPUL.0>
0

>  <SCORE.INTRA.VDW>
-1.03836

>  <SCORE.INTRA.VDW.0>
0.605696

>  <SCORE.INTRA.norm>
-0.0622802

>  <SCORE.RESTR>
0

>  <SCORE.RESTR.CAVITY>
0

>  <SCORE.RESTR.norm>
0

>  <SCORE.SYSTEM>
0.0127087

>  <SCORE.SYSTEM.CONST>
0

>  <SCORE.SYSTEM.DIHEDRAL>
4.26081

>  <SCORE.SYSTEM.POLAR>
-0.651108

>  <SCORE.SYSTEM.VDW>
0.0960705

>  <SCORE.SYSTEM.norm>
0.000577666

>  <SCORE.heavy>
22

>  <SCORE.norm>
-0.0498994

$$$$
U05.pdb
  rDOCK(R)          3D
libRbt.so/2013.1/901 2013/11/27
 22 24  0  0  0  0  0  0  0  0999 V2000
   -6.1661  -31.6968   23.7286 N   0  0  0  0  0  0
   -7.4584  -31.9903   23.3498 C   0  0  0  0  0  0
   -7.7580  -32.5277   22.0833 C   0  0  0  0  0  0
   -6.6720  -32.7858   21.1659 C   0  0  0  0  0  0
   -5.3662  -32.4998   21.5697 C   0  0  0  0  0  0
   -4.2105  -32.7975   20.6168 C   0  0  0  0  0  0
   -4.4403  -32.6815   19.4138 O   0  0  0  0  0  0
   -2.9932  -33.2233   21.0506 N   0  0  0  0  0  0
   -1.9092  -33.3761   20.0377 C   0  0  0  0  0  0
   -2.5474  -33.4898   22.4283 C   0  0  0  0  0  0
   -1.6393  -34.5296   22.7056 C   0  0  0  0  0  0
   -1.2651  -34.8253   24.0511 C   0  0  0  0  0  0
   -1.7942  -34.0845   25.1171 C   0  0  0  0  0  0
   -1.4322  -34.4089   26.5768 N   0  0  0  0  0  0
   -1.9114  -33.7307   27.4870 O   0  0  0  0  0  0
   -0.6583  -35.3130   26.7596 O   0  0  0  0  0  0
   -2.6748  -33.0416   24.8233 C   0  0  0  0  0  0
   -3.0330  -32.7446   23.4900 C   0  0  0  0  0  0
   -3.8087  -31.6355   23.1599 N   0  0  0  0  0  0
   -3.4443  -30.2859   23.8352 C   0  0  0  0  0  0
   -2.0800  -29.8030   23.5720 C   0  0  0  0  0  0
   -5.1501  -31.9465   22.8486 C   0  0  0  0  0  0
  1  2  2  0  0  0
  1 22  1  0  0  0
  2  3  1  0  0  0
  3  4  2  0  0  0
  4  5  1  0  0  0
  5  6  1  0  0  0
  5 22  2  0  0  0
  6  7  2  0  0  0
  6  8  1  0  0  0
  8  9  1  0  0  0
  8 10  1  0  0  0
 10 11  2  0  0  0
 10 18  1  0  0  0
 11 12  1  0  0  0
 12 13  2  0  0  0
 13 14  1  0  0  0
 13 17  1  0  0  0
 14 15  2  0  0  0
 14 16  2  0  0  0
 17 18  2  0  0  0
 18 19  1  0  0  0
 19 20  1  0  0  0
 19 22  1  0  0  0
 20 21  1  0  0  0
M  END
>  <CHROM.0>
177.13413189,3.05089821,-178.77087600,-68.81399312

>  <CHROM.1>
179.60008493,59.55266739,-3.50383722,-32.88435022,23.21701781,2.37868448
0.44979181,-1.60004266

>  <FORMUL>
      U05    C15 H14 N4 O3

>  <HET>
 U05  A 999      22

>  <HETNAM>
     U05 6,11-DIHYDRO-11-ETHYL-6-METHYL-9-NITRO-5H-PYRIDO[2,3-B]
   2 U05 [1,5]BENZODIAZEPIN-5-ONE

>  <HETSYN>
     U05 1051U91

>  <Name>
U05.pdb

>  <RI>
1.93237e+07

>  <Rbt.Current_Directory>
/home/malgorzata/Desktop/rDOCK_IFD/Wyniki/10_hiv_rt/IFD

>  <Rbt.Executable>
rbdock ($Id: //depot/dev/client3/rdock/2013.1/src/exe/rbdock.cxx#4 $)

>  <Rbt.Library>
libRbt.so (2013.1, Build901 2013/11/27)

>  <Rbt.Parameter_File>
/home/malgorzata/Desktop/rDock_2013.1_src/data/scripts/dock.prm

>  <Rbt.Receptor>
cavity.prm

>  <SCORE>
-1.18429

>  <SCORE.INTER>
0.165206

>  <SCORE.INTER.CONST>
1

>  <SCORE.INTER.POLAR>
0

>  <SCORE.INTER.REPUL>
0

>  <SCORE.INTER.ROT>
2

>  <SCORE.INTER.VDW>
-7.23479

>  <SCORE.INTER.norm>
0.00750938

>  <SCORE.INTRA>
-1.35601

>  <SCORE.INTRA.DIHEDRAL>
-0.856977

>  <SCORE.INTRA.DIHEDRAL.0>
1.34757

>  <SCORE.INTRA.POLAR>
0

>  <SCORE.INTRA.POLAR.0>
0

>  <SCORE.INTRA.REPUL>
0

>  <SCORE.INTRA.REPUL.0>
0

>  <SCORE.INTRA.VDW>
-0.927517

>  <SCORE.INTRA.VDW.0>
0.605696

>  <SCORE.INTRA.norm>
-0.0616366

>  <SCORE.RESTR>
0

>  <SCORE.RESTR.CAVITY>
0

>  <SCORE.RESTR.norm>
0

>  <SCORE.SYSTEM>
0.00650843

>  <SCORE.SYSTEM.CONST>
0

>  <SCORE.SYSTEM.DIHEDRAL>
4.20916

>  <SCORE.SYSTEM.POLAR>
-0.649162

>  <SCORE.SYSTEM.VDW>
0.109078

>  <SCORE.SYSTEM.norm>
0.000295838

>  <SCORE.heavy>
22

>  <SCORE.norm>
-0.0538314

$$$$
U05.pdb
  rDOCK(R)          3D
libRbt.so/2013.1/901 2013/11/27
 22 24  0  0  0  0  0  0  0  0999 V2000
   -6.7828  -31.6389   23.6406 N   0  0  0  0  0  0
   -7.8623  -32.0888   22.9113 C   0  0  0  0  0  0
   -7.7093  -32.6658   21.6359 C   0  0  0  0  0  0
   -6.3780  -32.7958   21.0898 C   0  0  0  0  0  0
   -5.2923  -32.3515   21.8472 C   0  0  0  0  0  0
   -3.8799  -32.5126   21.2892 C   0  0  0  0  0  0
   -3.7540  -32.4322   20.0681 O   0  0  0  0  0  0
   -2.8059  -32.7854   22.0788 N   0  0  0  0  0  0
   -1.4602  -32.8116   21.4365 C   0  0  0  0  0  0
   -2.7617  -32.9880   23.5366 C   0  0  0  0  0  0
   -1.8646  -33.9086   24.1112 C   0  0  0  0  0  0
   -1.8753  -34.1491   25.5183 C   0  0  0  0  0  0
   -2.7776  -33.4717   26.3501 C   0  0  0  0  0  0
   -2.8306  -33.7416   27.8639 N   0  0  0  0  0  0
   -2.0707  -34.5752   28.3596 O   0  0  0  0  0  0
   -3.6508  -33.1306   28.4992 O   0  0  0  0  0  0
   -3.6442  -32.5448   25.7676 C   0  0  0  0  0  0
   -3.6220  -32.3010   24.3769 C   0  0  0  0  0  0
   -4.3860  -31.2959   23.7878 N   0  0  0  0  0  0
   -4.3946  -29.9083   24.4839 C   0  0  0  0  0  0
   -3.1120  -29.1883   24.4596 C   0  0  0  0  0  0
   -5.5299  -31.7687   23.1092 C   0  0  0  0  0  0
  1  2  2  0  0  0
  1 22  1  0  0  0
  2  3  1  0  0  0
  3  4  2  0  0  0
  4  5  1  0  0  0
  5  6  1  0  0  0
  5 22  2  0  0  0
  6  7  2  0  0  0
  6  8  1  0  0  0
  8  9  1  0  0  0
  8 10  1  0  0  0
 10 11  2  0  0  0
 10 18  1  0  0  0
 11 12  1  0  0  0
 12 13  2  0  0  0
 13 14  1  0  0  0
 13 17  1  0  0  0
 14 15  2  0  0  0
 14 16  2  0  0  0
 17 18  2  0  0  0
 18 19  1  0  0  0
 19 20  1  0  0  0
 19 22  1  0  0  0
 20 21  1  0  0  0
M  END
>  <CHROM.0>
57.75694265,4.68969293,0.29042987,-68.77311908

>  <CHROM.1>
-0.39263999,67.11149409,-3.97547494,-32.49658829,23.97535860,2.05430239,0.32155902
-1.49176488

>  <FORMUL>
      U05    C15 H14 N4 O3

>  <HET>
 U05  A 999      22

>  <HETNAM>
     U05 6,11-DIHYDRO-11-ETHYL-6-METHYL-9-NITRO-5H-PYRIDO[2,3-B]
   2 U05 [1,5]BENZODIAZEPIN-5-ONE

>  <HETSYN>
     U05 1051U91

>  <Name>
U05.pdb

>  <RI>
1.93237e+07

>  <Rbt.Current_Directory>
/home/malgorzata/Desktop/rDOCK_IFD/Wyniki/10_hiv_rt/IFD

>  <Rbt.Executable>
rbdock ($Id: //depot/dev/client3/rdock/2013.1/src/exe/rbdock.cxx#4 $)

>  <Rbt.Library>
libRbt.so (2013.1, Build901 2013/11/27)

>  <Rbt.Parameter_File>
/home/malgorzata/Desktop/rDock_2013.1_src/data/scripts/dock.prm

>  <Rbt.Receptor>
cavity.prm

>  <SCORE>
-1.19195

>  <SCORE.INTER>
0.238742

>  <SCORE.INTER.CONST>
1

>  <SCORE.INTER.POLAR>
0

>  <SCORE.INTER.REPUL>
0

>  <SCORE.INTER.ROT>
2

>  <SCORE.INTER.VDW>
-7.16126

>  <SCORE.INTER.norm>
0.0108519

>  <SCORE.INTRA>
-1.32669

>  <SCORE.INTRA.DIHEDRAL>
-0.580109

>  <SCORE.INTRA.DIHEDRAL.0>
1.34757

>  <SCORE.INTRA.POLAR>
0

>  <SCORE.INTRA.POLAR.0>
0

>  <SCORE.INTRA.REPUL>
0

>  <SCORE.INTRA.REPUL.0>
0

>  <SCORE.INTRA.VDW>
-1.03663

>  <SCORE.INTRA.VDW.0>
0.605696

>  <SCORE.INTRA.norm>
-0.060304

>  <SCORE.RESTR>
0.00036241

>  <SCORE.RESTR.CAVITY>
0.00036241

>  <SCORE.RESTR.norm>
1.64732e-05

>  <SCORE.SYSTEM>
-0.104362

>  <SCORE.SYSTEM.CONST>
0

>  <SCORE.SYSTEM.DIHEDRAL>
4.21542

>  <SCORE.SYSTEM.POLAR>
-0.648802

>  <SCORE.SYSTEM.VDW>
-0.00614698

>  <SCORE.SYSTEM.norm>
-0.00474373

>  <SCORE.heavy>
22

>  <SCORE.norm>
-0.0541794

$$$$
U05.pdb
  rDOCK(R)          3D
libRbt.so/2013.1/901 2013/11/27
 22 24  0  0  0  0  0  0  0  0999 V2000
   -5.8884  -31.4909   24.0702 N   0  0  0  0  0  0
   -7.2019  -31.8257   23.8207 C   0  0  0  0  0  0
   -7.6010  -32.4149   22.6056 C   0  0  0  0  0  0
   -6.5960  -32.6827   21.6028 C   0  0  0  0  0  0
   -5.2666  -32.3542   21.8762 C   0  0  0  0  0  0
   -4.1944  -32.6613   20.8329 C   0  0  0  0  0  0
   -4.5344  -32.5939   19.6525 O   0  0  0  0  0  0
   -2.9329  -33.0448   21.1686 N   0  0  0  0  0  0
   -1.9410  -33.2108   20.0672 C   0  0  0  0  0  0
   -2.3583  -33.2516   22.5084 C   0  0  0  0  0  0
   -1.4036  -34.2608   22.7374 C   0  0  0  0  0  0
   -0.9026  -34.4995   24.0526 C   0  0  0  0  0  0
   -1.3516  -33.7321   25.1363 C   0  0  0  0  0  0
   -0.8517  -33.9957   26.5674 N   0  0  0  0  0  0
   -0.0370  -34.8974   26.7701 O   0  0  0  0  0  0
   -1.3140  -33.3097   27.4423 O   0  0  0  0  0  0
   -2.2806  -32.7198   24.8884 C   0  0  0  0  0  0
   -2.7646  -32.4790   23.5838 C   0  0  0  0  0  0
   -3.5941  -31.3995   23.2879 N   0  0  0  0  0  0
   -3.2038  -30.0189   23.8808 C   0  0  0  0  0  0
   -1.9049  -29.4913   23.4354 C   0  0  0  0  0  0
   -4.9499  -31.7504   23.1106 C   0  0  0  0  0  0
  1  2  2  0  0  0
  1 22  1  0  0  0
  2  3  1  0  0  0
  3  4  2  0  0  0
  4  5  1  0  0  0
  5  6  1  0  0  0
  5 22  2  0  0  0
  6  7  2  0  0  0
  6  8  1  0  0  0
  8  9  1  0  0  0
  8 10  1  0  0  0
 10 11  2  0  0  0
 10 18  1  0  0  0
 11 12  1  0  0  0
 12 13  2  0  0  0
 13 14  1  0  0  0
 13 17  1  0  0  0
 14 15  2  0  0  0
 14 16  2  0  0  0
 17 18  2  0  0  0
 18 19  1  0  0  0
 19 20  1  0  0  0
 19 22  1  0  0  0
 20 21  1  0  0  0
M  END
>  <CHROM.0>
-63.49098595,-178.89552676,-176.65486813,-68.27102951

>  <CHROM.1>
0.16662723,61.93630599,-3.25816325,-32.63932931,23.35796492,2.47413810,0.42099834
-1.66983177

>  <FORMUL>
      U05    C15 H14 N4 O3

>  <HET>
 U05  A 999      22

>  <HETNAM>
     U05 6,11-DIHYDRO-11-ETHYL-6-METHYL-9-NITRO-5H-PYRIDO[2,3-B]
   2 U05 [1,5]BENZODIAZEPIN-5-ONE

>  <HETSYN>
     U05 1051U91

>  <Name>
U05.pdb

>  <RI>
1.93237e+07

>  <Rbt.Current_Directory>
/home/malgorzata/Desktop/rDOCK_IFD/Wyniki/10_hiv_rt/IFD

>  <Rbt.Executable>
rbdock ($Id: //depot/dev/client3/rdock/2013.1/src/exe/rbdock.cxx#4 $)

>  <Rbt.Library>
libRbt.so (2013.1, Build901 2013/11/27)

>  <Rbt.Parameter_File>
/home/malgorzata/Desktop/rDock_2013.1_src/data/scripts/dock.prm

>  <Rbt.Receptor>
cavity.prm

>  <SCORE>
-1.01261

>  <SCORE.INTER>
0.300477

>  <SCORE.INTER.CONST>
1

>  <SCORE.INTER.POLAR>
0

>  <SCORE.INTER.REPUL>
0

>  <SCORE.INTER.ROT>
2

>  <SCORE.INTER.VDW>
-7.09952

>  <SCORE.INTER.norm>
0.0136581

>  <SCORE.INTRA>
-1.33315

>  <SCORE.INTRA.DIHEDRAL>
-0.778081

>  <SCORE.INTRA.DIHEDRAL.0>
1.34757

>  <SCORE.INTRA.POLAR>
0

>  <SCORE.INTRA.POLAR.0>
0

>  <SCORE.INTRA.REPUL>
0

>  <SCORE.INTRA.REPUL.0>
0

>  <SCORE.INTRA.VDW>
-0.94411

>  <SCORE.INTRA.VDW.0>
0.605696

>  <SCORE.INTRA.norm>
-0.0605977

>  <SCORE.RESTR>
0

>  <SCORE.RESTR.CAVITY>
0

>  <SCORE.RESTR.norm>
0

>  <SCORE.SYSTEM>
0.0200602

>  <SCORE.SYSTEM.CONST>
0

>  <SCORE.SYSTEM.DIHEDRAL>
4.19046

>  <SCORE.SYSTEM.POLAR>
-0.644249

>  <SCORE.SYSTEM.VDW>
0.115277

>  <SCORE.SYSTEM.norm>
0.000911828

>  <SCORE.heavy>
22

>  <SCORE.norm>
-0.0460278

$$$$
U05.pdb
  rDOCK(R)          3D
libRbt.so/2013.1/901 2013/11/27
 22 24  0  0  0  0  0  0  0  0999 V2000
   -6.1201  -30.8860   24.5506 N   0  0  0  0  0  0
   -7.4100  -31.2975   24.2928 C   0  0  0  0  0  0
   -7.7345  -32.0548   23.1509 C   0  0  0  0  0  0
   -6.6765  -32.4155   22.2354 C   0  0  0  0  0  0
   -5.3717  -32.0065   22.5184 C   0  0  0  0  0  0
   -4.2436  -32.4091   21.5710 C   0  0  0  0  0  0
   -4.5304  -32.5093   20.3788 O   0  0  0  0  0  0
   -2.9880  -32.6997   22.0071 N   0  0  0  0  0  0
   -1.9417  -32.9730   20.9800 C   0  0  0  0  0  0
   -2.4702  -32.7084   23.3854 C   0  0  0  0  0  0
   -1.4972  -33.6440   23.7860 C   0  0  0  0  0  0
   -1.0507  -33.6901   25.1411 C   0  0  0  0  0  0
   -1.5722  -32.8039   26.0937 C   0  0  0  0  0  0
   -1.1315  -32.8594   27.5667 N   0  0  0  0  0  0
   -1.6061  -32.0585   28.3738 O   0  0  0  0  0  0
   -0.3041  -33.6841   27.8585 O   0  0  0  0  0  0
   -2.5188  -31.8668   25.6750 C   0  0  0  0  0  0
   -2.9488  -31.8166   24.3309 C   0  0  0  0  0  0
   -3.7958  -30.8157   23.8600 N   0  0  0  0  0  0
   -3.4750  -29.3561   24.2805 C   0  0  0  0  0  0
   -2.1585  -28.8572   23.8543 C   0  0  0  0  0  0
   -5.1308  -31.2352   23.6740 C   0  0  0  0  0  0
  1  2  2  0  0  0
  1 22  1  0  0  0
  2  3  1  0  0  0
  3  4  2  0  0  0
  4  5  1  0  0  0
  5  6  1  0  0  0
  5 22  2  0  0  0
  6  7  2  0  0  0
  6  8  1  0  0  0
  8  9  1  0  0  0
  8 10  1  0  0  0
 10 11  2  0  0  0
 10 18  1  0  0  0
 11 12  1  0  0  0
 12 13  2  0  0  0
 13 14  1  0  0  0
 13 17  1  0  0  0
 14 15  2  0  0  0
 14 16  2  0  0  0
 17 18  2  0  0  0
 18 19  1  0  0  0
 19 20  1  0  0  0
 19 22  1  0  0  0
 20 21  1  0  0  0
M  END
>  <CHROM.0>
-63.45607712,3.15489725,179.04921418,0.00482107

>  <CHROM.1>
179.56098221,60.39470702,-3.42324320,-32.02139147,24.10870745,2.42311763
0.39518715,-1.78706392

>  <FORMUL>
      U05    C15 H14 N4 O3

>  <HET>
 U05  A 999      22

>  <HETNAM>
     U05 6,11-DIHYDRO-11-ETHYL-6-METHYL-9-NITRO-5H-PYRIDO[2,3-B]
   2 U05 [1,5]BENZODIAZEPIN-5-ONE

>  <HETSYN>
     U05 1051U91

>  <Name>
U05.pdb

>  <RI>
1.93237e+07

>  <Rbt.Current_Directory>
/home/malgorzata/Desktop/rDOCK_IFD/Wyniki/10_hiv_rt/IFD

>  <Rbt.Executable>
rbdock ($Id: //depot/dev/client3/rdock/2013.1/src/exe/rbdock.cxx#4 $)

>  <Rbt.Library>
libRbt.so (2013.1, Build901 2013/11/27)

>  <Rbt.Parameter_File>
/home/malgorzata/Desktop/rDock_2013.1_src/data/scripts/dock.prm

>  <Rbt.Receptor>
cavity.prm

>  <SCORE>
-0.327829

>  <SCORE.INTER>
0.229737

>  <SCORE.INTER.CONST>
1

>  <SCORE.INTER.POLAR>
0

>  <SCORE.INTER.REPUL>
0

>  <SCORE.INTER.ROT>
2

>  <SCORE.INTER.VDW>
-7.17026

>  <SCORE.INTER.norm>
0.0104426

>  <SCORE.INTRA>
-1.36215

>  <SCORE.INTRA.DIHEDRAL>
-0.830954

>  <SCORE.INTRA.DIHEDRAL.0>
1.34757

>  <SCORE.INTRA.POLAR>
0

>  <SCORE.INTRA.POLAR.0>
0

>  <SCORE.INTRA.REPUL>
0

>  <SCORE.INTRA.REPUL.0>
0

>  <SCORE.INTRA.VDW>
-0.94667

>  <SCORE.INTRA.VDW.0>
0.605696

>  <SCORE.INTRA.norm>
-0.0619158

>  <SCORE.RESTR>
0

>  <SCORE.RESTR.CAVITY>
0

>  <SCORE.RESTR.norm>
0

>  <SCORE.SYSTEM>
0.804581

>  <SCORE.SYSTEM.CONST>
0

>  <SCORE.SYSTEM.DIHEDRAL>
0.0440245

>  <SCORE.SYSTEM.VDW>
0.782569

>  <SCORE.SYSTEM.norm>
0.0365719

>  <SCORE.heavy>
22

>  <SCORE.norm>
-0.0149013

$$$$
U05.pdb
  rDOCK(R)          3D
libRbt.so/2013.1/901 2013/11/27
 22 24  0  0  0  0  0  0  0  0999 V2000
   -6.0945  -31.5892   23.7730 N   0  0  0  0  0  0
   -7.3967  -31.8331   23.3930 C   0  0  0  0  0  0
   -7.7134  -32.3878   22.1381 C   0  0  0  0  0  0
   -6.6353  -32.7177   21.2347 C   0  0  0  0  0  0
   -5.3201  -32.4812   21.6399 C   0  0  0  0  0  0
   -4.1739  -32.8548   20.7024 C   0  0  0  0  0  0
   -4.3915  -32.7585   19.4954 O   0  0  0  0  0  0
   -2.9796  -33.3244   21.1546 N   0  0  0  0  0  0
   -1.8981  -33.5514   20.1531 C   0  0  0  0  0  0
   -2.5540  -33.5764   22.5415 C   0  0  0  0  0  0
   -1.6958  -34.6490   22.8504 C   0  0  0  0  0  0
   -1.3428  -34.9277   24.2052 C   0  0  0  0  0  0
   -1.8435  -34.1373   25.2490 C   0  0  0  0  0  0
   -1.5047  -34.4413   26.7187 N   0  0  0  0  0  0
   -1.9403  -33.7072   27.6072 O   0  0  0  0  0  0
   -0.7906  -35.3875   26.9301 O   0  0  0  0  0  0
   -2.6741  -33.0632   24.9237 C   0  0  0  0  0  0
   -3.0110  -32.7836   23.5812 C   0  0  0  0  0  0
   -3.7337  -31.6490   23.2187 N   0  0  0  0  0  0
   -3.3120  -30.3010   23.8628 C   0  0  0  0  0  0
   -1.9368  -29.8698   23.5678 C   0  0  0  0  0  0
   -5.0860  -31.9066   22.9062 C   0  0  0  0  0  0
  1  2  2  0  0  0
  1 22  1  0  0  0
  2  3  1  0  0  0
  3  4  2  0  0  0
  4  5  1  0  0  0
  5  6  1  0  0  0
  5 22  2  0  0  0
  6  7  2  0  0  0
  6  8  1  0  0  0
  8  9  1  0  0  0
  8 10  1  0  0  0
 10 11  2  0  0  0
 10 18  1  0  0  0
 11 12  1  0  0  0
 12 13  2  0  0  0
 13 14  1  0  0  0
 13 17  1  0  0  0
 14 15  2  0  0  0
 14 16  2  0  0  0
 17 18  2  0  0  0
 18 19  1  0  0  0
 19 20  1  0  0  0
 19 22  1  0  0  0
 20 21  1  0  0  0
M  END
>  <CHROM.0>
-64.10012673,174.51309039,-179.41517378,-69.15153520

>  <CHROM.1>
178.46814418,61.08852041,-3.48680392,-32.90778859,23.30713151,2.37365824
0.49649745,-1.62217462

>  <FORMUL>
      U05    C15 H14 N4 O3

>  <HET>
 U05  A 999      22

>  <HETNAM>
     U05 6,11-DIHYDRO-11-ETHYL-6-METHYL-9-NITRO-5H-PYRIDO[2,3-B]
   2 U05 [1,5]BENZODIAZEPIN-5-ONE

>  <HETSYN>
     U05 1051U91

>  <Name>
U05.pdb

>  <RI>
1.93237e+07

>  <Rbt.Current_Directory>
/home/malgorzata/Desktop/rDOCK_IFD/Wyniki/10_hiv_rt/IFD

>  <Rbt.Executable>
rbdock ($Id: //depot/dev/client3/rdock/2013.1/src/exe/rbdock.cxx#4 $)

>  <Rbt.Library>
libRbt.so (2013.1, Build901 2013/11/27)

>  <Rbt.Parameter_File>
/home/malgorzata/Desktop/rDock_2013.1_src/data/scripts/dock.prm

>  <Rbt.Receptor>
cavity.prm

>  <SCORE>
-1.03258

>  <SCORE.INTER>
0.310742

>  <SCORE.INTER.CONST>
1

>  <SCORE.INTER.POLAR>
0

>  <SCORE.INTER.REPUL>
0

>  <SCORE.INTER.ROT>
2

>  <SCORE.INTER.VDW>
-7.08926

>  <SCORE.INTER.norm>
0.0141247

>  <SCORE.INTRA>
-1.36427

>  <SCORE.INTRA.DIHEDRAL>
-0.804434

>  <SCORE.INTRA.DIHEDRAL.0>
1.34757

>  <SCORE.INTRA.POLAR>
0

>  <SCORE.INTRA.POLAR.0>
0

>  <SCORE.INTRA.REPUL>
0

>  <SCORE.INTRA.REPUL.0>
0

>  <SCORE.INTRA.VDW>
-0.962053

>  <SCORE.INTRA.VDW.0>
0.605696

>  <SCORE.INTRA.norm>
-0.0620123

>  <SCORE.RESTR>
0

>  <SCORE.RESTR.CAVITY>
0

>  <SCORE.RESTR.norm>
0

>  <SCORE.SYSTEM>
0.0209497

>  <SCORE.SYSTEM.CONST>
0

>  <SCORE.SYSTEM.DIHEDRAL>
4.27763

>  <SCORE.SYSTEM.POLAR>
-0.652072

>  <SCORE.SYSTEM.VDW>
0.0991788

>  <SCORE.SYSTEM.norm>
0.000952258

>  <SCORE.heavy>
22

>  <SCORE.norm>
-0.0469354

$$$$
U05.pdb
  rDOCK(R)          3D
libRbt.so/2013.1/901 2013/11/27
 22 24  0  0  0  0  0  0  0  0999 V2000
   -6.4041  -34.5636   23.7797 N   0  0  0  0  0  0
   -7.2547  -34.1910   22.7612 C   0  0  0  0  0  0
   -7.1526  -32.9371   22.1286 C   0  0  0  0  0  0
   -6.1163  -32.0268   22.5586 C   0  0  0  0  0  0
   -5.2508  -32.4245   23.5797 C   0  0  0  0  0  0
   -4.1345  -31.4796   24.0193 C   0  0  0  0  0  0
   -4.3703  -30.2741   23.9518 O   0  0  0  0  0  0
   -2.9123  -31.9240   24.4192 N   0  0  0  0  0  0
   -1.9396  -30.9157   24.9304 C   0  0  0  0  0  0
   -2.4160  -33.3079   24.4996 C   0  0  0  0  0  0
   -1.0694  -33.6100   24.2202 C   0  0  0  0  0  0
   -0.6123  -34.9623   24.2336 C   0  0  0  0  0  0
   -1.4959  -36.0103   24.5268 C   0  0  0  0  0  0
   -1.0329  -37.4775   24.5121 N   0  0  0  0  0  0
   -1.8417  -38.3726   24.7623 O   0  0  0  0  0  0
    0.1308  -37.6806   24.2788 O   0  0  0  0  0  0
   -2.8221  -35.6917   24.8249 C   0  0  0  0  0  0
   -3.2674  -34.3516   24.8224 C   0  0  0  0  0  0
   -4.5492  -33.9951   25.2358 N   0  0  0  0  0  0
   -5.0792  -34.6388   26.5453 C   0  0  0  0  0  0
   -4.3232  -34.2981   27.7603 C   0  0  0  0  0  0
   -5.4294  -33.6903   24.1751 C   0  0  0  0  0  0
  1  2  2  0  0  0
  1 22  1  0  0  0
  2  3  1  0  0  0
  3  4  2  0  0  0
  4  5  1  0  0  0
  5  6  1  0  0  0
  5 22  2  0  0  0
  6  7  2  0  0  0
  6  8  1  0  0  0
  8  9  1  0  0  0
  8 10  1  0  0  0
 10 11  2  0  0  0
 10 18  1  0  0  0
 11 12  1  0  0  0
 12 13  2  0  0  0
 13 14  1  0  0  0
 13 17  1  0  0  0
 14 15  2  0  0  0
 14 16  2  0  0  0
 17 18  2  0  0  0
 18 19  1  0  0  0
 19 20  1  0  0  0
 19 22  1  0  0  0
 20 21  1  0  0  0
M  END
>  <CHROM.0>
58.21612374,143.15749988,-178.42354233,-177.67780333

>  <CHROM.1>
-179.29230463,63.14993834,-3.55808491,-34.07823696,24.42327954,2.34713015
-0.19504065,-0.04443810

>  <FORMUL>
      U05    C15 H14 N4 O3

>  <HET>
 U05  A 999      22

>  <HETNAM>
     U05 6,11-DIHYDRO-11-ETHYL-6-METHYL-9-NITRO-5H-PYRIDO[2,3-B]
   2 U05 [1,5]BENZODIAZEPIN-5-ONE

>  <HETSYN>
     U05 1051U91

>  <Name>
U05.pdb

>  <RI>
1.93237e+07

>  <Rbt.Current_Directory>
/home/malgorzata/Desktop/rDOCK_IFD/Wyniki/10_hiv_rt/IFD

>  <Rbt.Executable>
rbdock ($Id: //depot/dev/client3/rdock/2013.1/src/exe/rbdock.cxx#4 $)

>  <Rbt.Library>
libRbt.so (2013.1, Build901 2013/11/27)

>  <Rbt.Parameter_File>
/home/malgorzata/Desktop/rDock_2013.1_src/data/scripts/dock.prm

>  <Rbt.Receptor>
cavity.prm

>  <SCORE>
1.23207

>  <SCORE.INTER>
1.07544

>  <SCORE.INTER.CONST>
1

>  <SCORE.INTER.POLAR>
-1.11355

>  <SCORE.INTER.REPUL>
0

>  <SCORE.INTER.ROT>
2

>  <SCORE.INTER.VDW>
-2.53848

>  <SCORE.INTER.norm>
0.0488837

>  <SCORE.INTRA>
-1.36969

>  <SCORE.INTRA.DIHEDRAL>
-0.730924

>  <SCORE.INTRA.DIHEDRAL.0>
1.34757

>  <SCORE.INTRA.POLAR>
0

>  <SCORE.INTRA.POLAR.0>
0

>  <SCORE.INTRA.REPUL>
0

>  <SCORE.INTRA.REPUL.0>
0

>  <SCORE.INTRA.VDW>
-1.00423

>  <SCORE.INTRA.VDW.0>
0.605696

>  <SCORE.INTRA.norm>
-0.0622587

>  <SCORE.RESTR>
0

>  <SCORE.RESTR.CAVITY>
0

>  <SCORE.RESTR.norm>
0

>  <SCORE.SYSTEM>
1.52632

>  <SCORE.SYSTEM.CONST>
0

>  <SCORE.SYSTEM.DIHEDRAL>
1.74579

>  <SCORE.SYSTEM.VDW>
0.653427

>  <SCORE.SYSTEM.norm>
0.0693784

>  <SCORE.heavy>
22

>  <SCORE.norm>
0.0560034

$$$$
U05.pdb
  rDOCK(R)          3D
libRbt.so/2013.1/901 2013/11/27
 22 24  0  0  0  0  0  0  0  0999 V2000
   -6.1814  -31.7607   23.5306 N   0  0  0  0  0  0
   -7.4757  -32.0201   23.1339 C   0  0  0  0  0  0
   -7.7709  -32.5618   21.8682 C   0  0  0  0  0  0
   -6.6786  -32.8614   20.9712 C   0  0  0  0  0  0
   -5.3714  -32.6095   21.3931 C   0  0  0  0  0  0
   -4.2101  -32.9511   20.4621 C   0  0  0  0  0  0
   -4.4172  -32.8411   19.2544 O   0  0  0  0  0  0
   -3.0129  -33.4078   20.9197 N   0  0  0  0  0  0
   -1.9179  -33.6030   19.9261 C   0  0  0  0  0  0
   -2.5971  -33.6727   22.3072 C   0  0  0  0  0  0
   -1.7246  -34.7357   22.6095 C   0  0  0  0  0  0
   -1.3807  -35.0281   23.9638 C   0  0  0  0  0  0
   -1.9045  -34.2608   25.0136 C   0  0  0  0  0  0
   -1.5755  -34.5803   26.4822 N   0  0  0  0  0  0
   -2.0809  -33.9038   27.3793 O   0  0  0  0  0  0
   -0.8000  -35.4788   26.6851 O   0  0  0  0  0  0
   -2.7492  -33.1957   24.6951 C   0  0  0  0  0  0
   -3.0772  -32.9024   23.3533 C   0  0  0  0  0  0
   -3.8146  -31.7745   22.9995 N   0  0  0  0  0  0
   -3.4213  -30.4292   23.6669 C   0  0  0  0  0  0
   -2.0491  -29.9738   23.3953 C   0  0  0  0  0  0
   -5.1594  -32.0493   22.6697 C   0  0  0  0  0  0
  1  2  2  0  0  0
  1 22  1  0  0  0
  2  3  1  0  0  0
  3  4  2  0  0  0
  4  5  1  0  0  0
  5  6  1  0  0  0
  5 22  2  0  0  0
  6  7  2  0  0  0
  6  8  1  0  0  0
  8  9  1  0  0  0
  8 10  1  0  0  0
 10 11  2  0  0  0
 10 18  1  0  0  0
 11 12  1  0  0  0
 12 13  2  0  0  0
 13 14  1  0  0  0
 13 17  1  0  0  0
 14 15  2  0  0  0
 14 16  2  0  0  0
 17 18  2  0  0  0
 18 19  1  0  0  0
 19 20  1  0  0  0
 19 22  1  0  0  0
 20 21  1  0  0  0
M  END
>  <CHROM.0>
57.02123587,101.75078385,0.52543996,-67.41281420

>  <CHROM.1>
-178.21706042,60.91568577,-3.54815842,-33.03033316,23.07283762,2.36089442
0.47805567,-1.59986459

>  <FORMUL>
      U05    C15 H14 N4 O3

>  <HET>
 U05  A 999      22

>  <HETNAM>
     U05 6,11-DIHYDRO-11-ETHYL-6-METHYL-9-NITRO-5H-PYRIDO[2,3-B]
   2 U05 [1,5]BENZODIAZEPIN-5-ONE

>  <HETSYN>
     U05 1051U91

>  <Name>
U05.pdb

>  <RI>
1.93237e+07

>  <Rbt.Current_Directory>
/home/malgorzata/Desktop/rDOCK_IFD/Wyniki/10_hiv_rt/IFD

>  <Rbt.Executable>
rbdock ($Id: //depot/dev/client3/rdock/2013.1/src/exe/rbdock.cxx#4 $)

>  <Rbt.Library>
libRbt.so (2013.1, Build901 2013/11/27)

>  <Rbt.Parameter_File>
/home/malgorzata/Desktop/rDock_2013.1_src/data/scripts/dock.prm

>  <Rbt.Receptor>
cavity.prm

>  <SCORE>
-0.900314

>  <SCORE.INTER>
-0.933284

>  <SCORE.INTER.CONST>
1

>  <SCORE.INTER.POLAR>
-0.433141

>  <SCORE.INTER.REPUL>
0

>  <SCORE.INTER.ROT>
2

>  <SCORE.INTER.VDW>
-6.8606

>  <SCORE.INTER.norm>
-0.042422

>  <SCORE.INTRA>
-1.35652

>  <SCORE.INTRA.DIHEDRAL>
-0.793708

>  <SCORE.INTRA.DIHEDRAL.0>
1.34757

>  <SCORE.INTRA.POLAR>
0

>  <SCORE.INTRA.POLAR.0>
0

>  <SCORE.INTRA.REPUL>
0

>  <SCORE.INTRA.REPUL.0>
0

>  <SCORE.INTRA.VDW>
-0.959664

>  <SCORE.INTRA.VDW.0>
0.605696

>  <SCORE.INTRA.norm>
-0.0616599

>  <SCORE.RESTR>
0

>  <SCORE.RESTR.CAVITY>
0

>  <SCORE.RESTR.norm>
0

>  <SCORE.SYSTEM>
1.38949

>  <SCORE.SYSTEM.CONST>
0

>  <SCORE.SYSTEM.DIHEDRAL>
8.71555

>  <SCORE.SYSTEM.POLAR>
-0.635907

>  <SCORE.SYSTEM.VDW>
-0.806203

>  <SCORE.SYSTEM.norm>
0.0631585

>  <SCORE.heavy>
22

>  <SCORE.norm>
-0.0409234

$$$$
