FLP.pdb
  rDOCK(R)          3D
libRbt.so/2013.1/901 2013/11/27
 19 20  0  0  0  0  0  0  0  0999 V2000
   26.1981   23.8001   12.0466 C   0  0  0  0  0  0
   25.4215   23.0371   12.9464 C   0  0  0  0  0  0
   25.5287   23.2570   14.3159 C   0  0  0  0  0  0
   26.4084   24.2355   14.7821 C   0  0  0  0  0  0
   27.1785   24.9928   13.8787 C   0  0  0  0  0  0
   27.0696   24.7704   12.5098 C   0  0  0  0  0  0
   24.7295   22.4264   15.2972 C   0  0  0  0  0  0
   24.3996   21.0768   15.0237 C   0  0  0  0  0  0
   23.6624   20.3164   15.9821 C   0  0  0  0  0  0
   23.2641   20.9362   17.2164 C   0  0  0  0  0  0
   23.6024   22.2596   17.4715 C   0  0  0  0  0  0
   24.3204   23.0061   16.5319 C   0  0  0  0  0  0
   22.3957   20.2055   18.2200 C   0  0  0  0  0  0
   22.9840   18.8338   18.5416 C   0  0  0  0  0  0
   21.0003   20.0553   17.6151 C   0  0  0  0  0  0
   20.7819   19.1988   16.7942 O   0  0  0  0  0  0
   20.0358   20.8692   17.9542 O   0  0  0  0  0  0
   24.6117   24.3054   16.8068 F   0  0  0  0  0  0
   19.3224   21.0211   17.3660 H   0  0  0  0  0  0
  1  2  2  0  0  0
  2  3  1  0  0  0
  3  7  1  0  0  0
  4  3  2  0  0  0
  5  4  1  0  0  0
  6  5  2  0  0  0
  6  1  1  0  0  0
  7  8  2  0  0  0
  7 12  1  0  0  0
  8  9  1  0  0  0
  9 10  2  0  0  0
 10 13  1  0  0  0
 11 10  1  0  0  0
 12 11  2  0  0  0
 13 14  1  0  0  0
 15 17  1  0  0  0
 15 13  1  0  0  0
 16 15  2  0  0  0
 17 19  1  0  0  0
 18 12  1  0  0  0
M  END
>  <CHROM.0>
41.57805530,-170.77673853,-19.56067572,-79.70350611,-170.47135925,-71.27751889
44.31326938

>  <CHROM.1>
31.65934295,51.64994681,154.55116046,78.74511588,23.98930097,22.06392455
15.85918361,0.15232141,-0.88374757,-2.15879999

>  <FORMUL>
      FLP    C15 H13 F1 O2

>  <HET>
 FLP  A 701      18

>  <HETNAM>
     FLP FLURBIPROFEN

>  <Name>
FLP.pdb

>  <RI>
0

>  <Rbt.Current_Directory>
/home/malgorzata/Desktop/rDOCK_IFD/Wyniki/4_COX2

>  <Rbt.Executable>
rbdock ($Id: //depot/dev/client3/rdock/2013.1/src/exe/rbdock.cxx#4 $)

>  <Rbt.Library>
libRbt.so (2013.1, Build901 2013/11/27)

>  <Rbt.Parameter_File>
/home/malgorzata/Desktop/rDock_2013.1_src/data/scripts/soft_docking.prm

>  <Rbt.Receptor>
cavity.prm

>  <SCORE>
-30.4087

>  <SCORE.INTER>
-20.0414

>  <SCORE.INTER.CONST>
1

>  <SCORE.INTER.POLAR>
-1.38749

>  <SCORE.INTER.REPUL>
0

>  <SCORE.INTER.ROT>
3

>  <SCORE.INTER.VDW>
-23.7239

>  <SCORE.INTER.norm>
-1.11341

>  <SCORE.INTRA>
0.154066

>  <SCORE.INTRA.DIHEDRAL>
2.75339

>  <SCORE.INTRA.DIHEDRAL.0>
5.47211

>  <SCORE.INTRA.POLAR>
0

>  <SCORE.INTRA.POLAR.0>
0

>  <SCORE.INTRA.REPUL>
0

>  <SCORE.INTRA.REPUL.0>
0

>  <SCORE.INTRA.VDW>
-0.396613

>  <SCORE.INTRA.VDW.0>
0.722234

>  <SCORE.INTRA.norm>
0.00855921

>  <SCORE.RESTR>
0.418134

>  <SCORE.RESTR.CAVITY>
0.0836268

>  <SCORE.RESTR.norm>
0.0232297

>  <SCORE.SYSTEM>
-10.9394

>  <SCORE.SYSTEM.CONST>
0

>  <SCORE.SYSTEM.DIHEDRAL>
5.40222

>  <SCORE.SYSTEM.POLAR>
-3.53698

>  <SCORE.SYSTEM.REPUL>
0.64611

>  <SCORE.SYSTEM.VDW>
-4.84537

>  <SCORE.SYSTEM.norm>
-0.607746

>  <SCORE.heavy>
18

>  <SCORE.norm>
-1.68937

$$$$
FLP.pdb
  rDOCK(R)          3D
libRbt.so/2013.1/901 2013/11/27
 19 20  0  0  0  0  0  0  0  0999 V2000
   25.7904   24.6328   11.3771 C   0  0  0  0  0  0
   25.7449   23.9772   12.6273 C   0  0  0  0  0  0
   24.7664   23.0197   12.8745 C   0  0  0  0  0  0
   23.8386   22.7200   11.8754 C   0  0  0  0  0  0
   23.8911   23.3772   10.6312 C   0  0  0  0  0  0
   24.8704   24.3345   10.3871 C   0  0  0  0  0  0
   24.6810   22.3308   14.2197 C   0  0  0  0  0  0
   25.8264   21.7700   14.8350 C   0  0  0  0  0  0
   25.7129   21.1461   16.1149 C   0  0  0  0  0  0
   24.4304   21.0965   16.7624 C   0  0  0  0  0  0
   23.3181   21.6581   16.1473 C   0  0  0  0  0  0
   23.4275   22.2653   14.8923 C   0  0  0  0  0  0
   24.2374   20.3587   18.0714 C   0  0  0  0  0  0
   24.9074   21.1131   19.2174 C   0  0  0  0  0  0
   24.8504   18.9667   17.9231 C   0  0  0  0  0  0
   26.0232   18.7915   18.1444 O   0  0  0  0  0  0
   24.1224   17.9568   17.5259 O   0  0  0  0  0  0
   22.3121   22.7820   14.3114 F   0  0  0  0  0  0
   24.3508   17.0850   17.7825 H   0  0  0  0  0  0
  1  2  2  0  0  0
  2  3  1  0  0  0
  3  7  1  0  0  0
  4  3  2  0  0  0
  5  4  1  0  0  0
  6  5  2  0  0  0
  6  1  1  0  0  0
  7  8  2  0  0  0
  7 12  1  0  0  0
  8  9  1  0  0  0
  9 10  2  0  0  0
 10 13  1  0  0  0
 11 10  1  0  0  0
 12 11  2  0  0  0
 13 14  1  0  0  0
 15 17  1  0  0  0
 15 13  1  0  0  0
 16 15  2  0  0  0
 17 19  1  0  0  0
 18 12  1  0  0  0
M  END
>  <CHROM.0>
-58.94071482,-166.60381261,3.85312278,159.55456832,179.59703465,-58.31827191
61.36449277

>  <CHROM.1>
-48.62324385,71.52441977,-152.98701832,86.48631611,24.55791114,21.71527056
14.98183347,-1.59633662,-0.03707355,2.15351758

>  <FORMUL>
      FLP    C15 H13 F1 O2

>  <HET>
 FLP  A 701      18

>  <HETNAM>
     FLP FLURBIPROFEN

>  <Name>
FLP.pdb

>  <RI>
0

>  <Rbt.Current_Directory>
/home/malgorzata/Desktop/rDOCK_IFD/Wyniki/4_COX2

>  <Rbt.Executable>
rbdock ($Id: //depot/dev/client3/rdock/2013.1/src/exe/rbdock.cxx#4 $)

>  <Rbt.Library>
libRbt.so (2013.1, Build901 2013/11/27)

>  <Rbt.Parameter_File>
/home/malgorzata/Desktop/rDock_2013.1_src/data/scripts/soft_docking.prm

>  <Rbt.Receptor>
cavity.prm

>  <SCORE>
-31.1213

>  <SCORE.INTER>
-21.7932

>  <SCORE.INTER.CONST>
1

>  <SCORE.INTER.POLAR>
-1.04953

>  <SCORE.INTER.REPUL>
0

>  <SCORE.INTER.ROT>
3

>  <SCORE.INTER.VDW>
-26.6248

>  <SCORE.INTER.norm>
-1.21074

>  <SCORE.INTRA>
-0.102607

>  <SCORE.INTRA.DIHEDRAL>
4.73021

>  <SCORE.INTRA.DIHEDRAL.0>
5.47211

>  <SCORE.INTRA.POLAR>
0

>  <SCORE.INTRA.POLAR.0>
0

>  <SCORE.INTRA.REPUL>
0

>  <SCORE.INTRA.REPUL.0>
0

>  <SCORE.INTRA.VDW>
-1.04865

>  <SCORE.INTRA.VDW.0>
0.722234

>  <SCORE.INTRA.norm>
-0.00570039

>  <SCORE.RESTR>
0

>  <SCORE.RESTR.CAVITY>
0

>  <SCORE.RESTR.norm>
0

>  <SCORE.SYSTEM>
-9.22548

>  <SCORE.SYSTEM.CONST>
0

>  <SCORE.SYSTEM.DIHEDRAL>
4.87587

>  <SCORE.SYSTEM.POLAR>
-2.87747

>  <SCORE.SYSTEM.REPUL>
0.64611

>  <SCORE.SYSTEM.VDW>
-5.11058

>  <SCORE.SYSTEM.norm>
-0.512527

>  <SCORE.heavy>
18

>  <SCORE.norm>
-1.72896

$$$$
FLP.pdb
  rDOCK(R)          3D
libRbt.so/2013.1/901 2013/11/27
 19 20  0  0  0  0  0  0  0  0999 V2000
   26.6422   20.1554   17.1230 C   0  0  0  0  0  0
   25.2319   20.0785   17.1161 C   0  0  0  0  0  0
   24.4723   21.2377   17.2374 C   0  0  0  0  0  0
   25.1211   22.4672   17.3648 C   0  0  0  0  0  0
   26.5275   22.5357   17.3699 C   0  0  0  0  0  0
   27.2843   21.3749   17.2488 C   0  0  0  0  0  0
   22.9602   21.1718   17.2658 C   0  0  0  0  0  0
   22.2788   20.2036   18.0425 C   0  0  0  0  0  0
   20.8507   20.1843   18.0623 C   0  0  0  0  0  0
   20.1228   21.1532   17.2891 C   0  0  0  0  0  0
   20.8077   22.1007   16.5380 C   0  0  0  0  0  0
   22.2059   22.1177   16.5146 C   0  0  0  0  0  0
   18.6113   21.1118   17.1963 C   0  0  0  0  0  0
   17.9807   21.8985   18.3429 C   0  0  0  0  0  0
   18.1751   19.6483   17.2547 C   0  0  0  0  0  0
   18.8903   18.7821   16.8150 O   0  0  0  0  0  0
   17.0122   19.3188   17.7515 O   0  0  0  0  0  0
   22.8404   23.0446   15.7485 F   0  0  0  0  0  0
   16.5743   18.5481   17.4478 H   0  0  0  0  0  0
  1  2  2  0  0  0
  2  3  1  0  0  0
  3  7  1  0  0  0
  4  3  2  0  0  0
  5  4  1  0  0  0
  6  5  2  0  0  0
  6  1  1  0  0  0
  7  8  2  0  0  0
  7 12  1  0  0  0
  8  9  1  0  0  0
  9 10  2  0  0  0
 10 13  1  0  0  0
 11 10  1  0  0  0
 12 11  2  0  0  0
 13 14  1  0  0  0
 15 17  1  0  0  0
 15 13  1  0  0  0
 16 15  2  0  0  0
 17 19  1  0  0  0
 18 12  1  0  0  0
M  END
>  <CHROM.0>
-14.86114821,79.36430091,-11.99706461,-90.75848824,6.09579876,-66.09700103
52.97146138

>  <CHROM.1>
44.31408388,87.81349597,151.33808447,-30.82002328,21.98211688,21.02957591
17.21508152,-0.17917474,-0.00891149,2.91391125

>  <FORMUL>
      FLP    C15 H13 F1 O2

>  <HET>
 FLP  A 701      18

>  <HETNAM>
     FLP FLURBIPROFEN

>  <Name>
FLP.pdb

>  <RI>
0

>  <Rbt.Current_Directory>
/home/malgorzata/Desktop/rDOCK_IFD/Wyniki/4_COX2

>  <Rbt.Executable>
rbdock ($Id: //depot/dev/client3/rdock/2013.1/src/exe/rbdock.cxx#4 $)

>  <Rbt.Library>
libRbt.so (2013.1, Build901 2013/11/27)

>  <Rbt.Parameter_File>
/home/malgorzata/Desktop/rDock_2013.1_src/data/scripts/soft_docking.prm

>  <Rbt.Receptor>
cavity.prm

>  <SCORE>
-30.7897

>  <SCORE.INTER>
-22.29

>  <SCORE.INTER.CONST>
1

>  <SCORE.INTER.POLAR>
-1.03177

>  <SCORE.INTER.REPUL>
0

>  <SCORE.INTER.ROT>
3

>  <SCORE.INTER.VDW>
-27.182

>  <SCORE.INTER.norm>
-1.23833

>  <SCORE.INTRA>
0.87104

>  <SCORE.INTRA.DIHEDRAL>
4.27205

>  <SCORE.INTRA.DIHEDRAL.0>
5.47211

>  <SCORE.INTRA.POLAR>
0

>  <SCORE.INTRA.POLAR.0>
0

>  <SCORE.INTRA.REPUL>
0

>  <SCORE.INTRA.REPUL.0>
0

>  <SCORE.INTRA.VDW>
0.0166295

>  <SCORE.INTRA.VDW.0>
0.722234

>  <SCORE.INTRA.norm>
0.0483911

>  <SCORE.RESTR>
0

>  <SCORE.RESTR.CAVITY>
0

>  <SCORE.RESTR.norm>
0

>  <SCORE.SYSTEM>
-9.37068

>  <SCORE.SYSTEM.CONST>
0

>  <SCORE.SYSTEM.DIHEDRAL>
3.2023

>  <SCORE.SYSTEM.POLAR>
-3.5474

>  <SCORE.SYSTEM.REPUL>
1.16611

>  <SCORE.SYSTEM.VDW>
-4.74124

>  <SCORE.SYSTEM.norm>
-0.520593

>  <SCORE.heavy>
18

>  <SCORE.norm>
-1.71054

$$$$
FLP.pdb
  rDOCK(R)          3D
libRbt.so/2013.1/901 2013/11/27
 19 20  0  0  0  0  0  0  0  0999 V2000
   18.9082   22.5728   18.6443 C   0  0  0  0  0  0
   19.8647   21.5341   18.6087 C   0  0  0  0  0  0
   20.8093   21.4943   17.5883 C   0  0  0  0  0  0
   20.7967   22.4889   16.6088 C   0  0  0  0  0  0
   19.8406   23.5217   16.6517 C   0  0  0  0  0  0
   18.8969   23.5587   17.6731 C   0  0  0  0  0  0
   21.8210   20.3705   17.5146 C   0  0  0  0  0  0
   21.4144   19.0177   17.4160 C   0  0  0  0  0  0
   22.3966   17.9845   17.3269 C   0  0  0  0  0  0
   23.7905   18.3355   17.3390 C   0  0  0  0  0  0
   24.1717   19.6687   17.4292 C   0  0  0  0  0  0
   23.2108   20.6807   17.5208 C   0  0  0  0  0  0
   24.8700   17.2726   17.3488 C   0  0  0  0  0  0
   25.4354   17.0678   15.9453 C   0  0  0  0  0  0
   24.2495   15.9749   17.8648 C   0  0  0  0  0  0
   24.2944   15.7039   19.0394 O   0  0  0  0  0  0
   23.6911   15.1290   17.0399 O   0  0  0  0  0  0
   23.6227   21.9716   17.6323 F   0  0  0  0  0  0
   23.1939   14.4082   17.3734 H   0  0  0  0  0  0
  1  2  2  0  0  0
  2  3  1  0  0  0
  3  7  1  0  0  0
  4  3  2  0  0  0
  5  4  1  0  0  0
  6  5  2  0  0  0
  6  1  1  0  0  0
  7  8  2  0  0  0
  7 12  1  0  0  0
  8  9  1  0  0  0
  9 10  2  0  0  0
 10 13  1  0  0  0
 11 10  1  0  0  0
 12 11  2  0  0  0
 13 14  1  0  0  0
 15 17  1  0  0  0
 15 13  1  0  0  0
 16 15  2  0  0  0
 17 19  1  0  0  0
 18 12  1  0  0  0
M  END
>  <CHROM.0>
-24.75835633,76.60216883,-0.12769408,134.60509162,170.46589054,-48.74818222
30.34239703

>  <CHROM.1>
58.59204694,99.76516852,-170.12112476,-92.42675174,22.42990839,19.60082876
17.51192570,2.20150179,0.28674163,-0.17819315

>  <FORMUL>
      FLP    C15 H13 F1 O2

>  <HET>
 FLP  A 701      18

>  <HETNAM>
     FLP FLURBIPROFEN

>  <Name>
FLP.pdb

>  <RI>
0

>  <Rbt.Current_Directory>
/home/malgorzata/Desktop/rDOCK_IFD/Wyniki/4_COX2

>  <Rbt.Executable>
rbdock ($Id: //depot/dev/client3/rdock/2013.1/src/exe/rbdock.cxx#4 $)

>  <Rbt.Library>
libRbt.so (2013.1, Build901 2013/11/27)

>  <Rbt.Parameter_File>
/home/malgorzata/Desktop/rDock_2013.1_src/data/scripts/soft_docking.prm

>  <Rbt.Receptor>
cavity.prm

>  <SCORE>
-34.3948

>  <SCORE.INTER>
-23.6868

>  <SCORE.INTER.CONST>
1

>  <SCORE.INTER.POLAR>
-2.27015

>  <SCORE.INTER.REPUL>
0

>  <SCORE.INTER.ROT>
3

>  <SCORE.INTER.VDW>
-24.3683

>  <SCORE.INTER.norm>
-1.31594

>  <SCORE.INTRA>
-0.863968

>  <SCORE.INTRA.DIHEDRAL>
0.977709

>  <SCORE.INTRA.DIHEDRAL.0>
5.47211

>  <SCORE.INTRA.POLAR>
0

>  <SCORE.INTRA.POLAR.0>
0

>  <SCORE.INTRA.REPUL>
0

>  <SCORE.INTRA.REPUL.0>
0

>  <SCORE.INTRA.VDW>
-1.05951

>  <SCORE.INTRA.VDW.0>
0.722234

>  <SCORE.INTRA.norm>
-0.0479982

>  <SCORE.RESTR>
0.0270635

>  <SCORE.RESTR.CAVITY>
0.0054127

>  <SCORE.RESTR.norm>
0.00150353

>  <SCORE.SYSTEM>
-9.871

>  <SCORE.SYSTEM.CONST>
0

>  <SCORE.SYSTEM.DIHEDRAL>
6.87207

>  <SCORE.SYSTEM.POLAR>
-3.52655

>  <SCORE.SYSTEM.REPUL>
0.64611

>  <SCORE.SYSTEM.VDW>
-4.54732

>  <SCORE.SYSTEM.norm>
-0.548389

>  <SCORE.heavy>
18

>  <SCORE.norm>
-1.91082

$$$$
FLP.pdb
  rDOCK(R)          3D
libRbt.so/2013.1/901 2013/11/27
 19 20  0  0  0  0  0  0  0  0999 V2000
   19.1368   22.9585   16.0481 C   0  0  0  0  0  0
   20.4509   22.7706   16.5304 C   0  0  0  0  0  0
   20.9482   21.4836   16.7085 C   0  0  0  0  0  0
   20.1344   20.3907   16.4053 C   0  0  0  0  0  0
   18.8257   20.5862   15.9240 C   0  0  0  0  0  0
   18.3310   21.8743   15.7473 C   0  0  0  0  0  0
   22.3421   21.2622   17.2561 C   0  0  0  0  0  0
   23.4641   21.9303   16.7086 C   0  0  0  0  0  0
   24.7620   21.7136   17.2643 C   0  0  0  0  0  0
   24.9103   20.8154   18.3769 C   0  0  0  0  0  0
   23.7973   20.1735   18.9062 C   0  0  0  0  0  0
   22.5268   20.3817   18.3600 C   0  0  0  0  0  0
   26.2760   20.4742   18.9366 C   0  0  0  0  0  0
   27.2483   21.6323   18.7250 C   0  0  0  0  0  0
   26.7798   19.2216   18.2205 C   0  0  0  0  0  0
   27.7522   19.2771   17.5089 O   0  0  0  0  0  0
   26.1483   18.0841   18.3437 O   0  0  0  0  0  0
   21.4655   19.7170   18.8894 F   0  0  0  0  0  0
   25.4923   17.9817   19.0048 H   0  0  0  0  0  0
  1  2  2  0  0  0
  2  3  1  0  0  0
  3  7  1  0  0  0
  4  3  2  0  0  0
  5  4  1  0  0  0
  6  5  2  0  0  0
  6  1  1  0  0  0
  7  8  2  0  0  0
  7 12  1  0  0  0
  8  9  1  0  0  0
  9 10  2  0  0  0
 10 13  1  0  0  0
 11 10  1  0  0  0
 12 11  2  0  0  0
 13 14  1  0  0  0
 15 17  1  0  0  0
 15 13  1  0  0  0
 16 15  2  0  0  0
 17 19  1  0  0  0
 18 12  1  0  0  0
M  END
>  <CHROM.0>
10.61055984,52.93624775,39.13770075,-66.17820043,2.65142555,-64.67249091
66.08898269

>  <CHROM.1>
-50.31622168,29.14656300,-12.67940393,114.66706427,23.16312419,20.73893183
17.54740257,-2.82363082,0.16803142,2.77600275

>  <FORMUL>
      FLP    C15 H13 F1 O2

>  <HET>
 FLP  A 701      18

>  <HETNAM>
     FLP FLURBIPROFEN

>  <Name>
FLP.pdb

>  <RI>
0

>  <Rbt.Current_Directory>
/home/malgorzata/Desktop/rDOCK_IFD/Wyniki/4_COX2

>  <Rbt.Executable>
rbdock ($Id: //depot/dev/client3/rdock/2013.1/src/exe/rbdock.cxx#4 $)

>  <Rbt.Library>
libRbt.so (2013.1, Build901 2013/11/27)

>  <Rbt.Parameter_File>
/home/malgorzata/Desktop/rDock_2013.1_src/data/scripts/soft_docking.prm

>  <Rbt.Receptor>
cavity.prm

>  <SCORE>
-33.7978

>  <SCORE.INTER>
-23.8924

>  <SCORE.INTER.CONST>
1

>  <SCORE.INTER.POLAR>
-1.30507

>  <SCORE.INTER.REPUL>
0

>  <SCORE.INTER.ROT>
3

>  <SCORE.INTER.VDW>
-27.8552

>  <SCORE.INTER.norm>
-1.32736

>  <SCORE.INTRA>
0.815106

>  <SCORE.INTRA.DIHEDRAL>
-0.032621

>  <SCORE.INTRA.DIHEDRAL.0>
5.47211

>  <SCORE.INTRA.POLAR>
0

>  <SCORE.INTRA.POLAR.0>
0

>  <SCORE.INTRA.REPUL>
0

>  <SCORE.INTRA.REPUL.0>
0

>  <SCORE.INTRA.VDW>
0.82163

>  <SCORE.INTRA.VDW.0>
0.722234

>  <SCORE.INTRA.norm>
0.0452837

>  <SCORE.RESTR>
0

>  <SCORE.RESTR.CAVITY>
0

>  <SCORE.RESTR.norm>
0

>  <SCORE.SYSTEM>
-10.7205

>  <SCORE.SYSTEM.CONST>
0

>  <SCORE.SYSTEM.DIHEDRAL>
2.88033

>  <SCORE.SYSTEM.POLAR>
-2.95916

>  <SCORE.SYSTEM.REPUL>
0.64611

>  <SCORE.SYSTEM.VDW>
-5.33008

>  <SCORE.SYSTEM.norm>
-0.595583

>  <SCORE.heavy>
18

>  <SCORE.norm>
-1.87766

$$$$
FLP.pdb
  rDOCK(R)          3D
libRbt.so/2013.1/901 2013/11/27
 19 20  0  0  0  0  0  0  0  0999 V2000
   25.2230   24.3430   11.8688 C   0  0  0  0  0  0
   25.4304   23.5074   12.9885 C   0  0  0  0  0  0
   25.0855   22.1612   12.9241 C   0  0  0  0  0  0
   24.5361   21.6543   11.7452 C   0  0  0  0  0  0
   24.3333   22.4934   10.6329 C   0  0  0  0  0  0
   24.6787   23.8393   10.7003 C   0  0  0  0  0  0
   25.2692   21.2577   14.1248 C   0  0  0  0  0  0
   26.1151   20.1234   14.0714 C   0  0  0  0  0  0
   26.2815   19.3050   15.2302 C   0  0  0  0  0  0
   25.5837   19.6470   16.4396 C   0  0  0  0  0  0
   24.7630   20.7678   16.4762 C   0  0  0  0  0  0
   24.5961   21.5672   15.3409 C   0  0  0  0  0  0
   25.6466   18.7567   17.6636 C   0  0  0  0  0  0
   27.0130   18.8639   18.3365 C   0  0  0  0  0  0
   25.3882   17.3188   17.2147 C   0  0  0  0  0  0
   24.2588   16.9165   17.0818 O   0  0  0  0  0  0
   26.3828   16.4989   16.9996 O   0  0  0  0  0  0
   23.7657   22.6416   15.4085 F   0  0  0  0  0  0
   26.2152   15.5911   16.8388 H   0  0  0  0  0  0
  1  2  2  0  0  0
  2  3  1  0  0  0
  3  7  1  0  0  0
  4  3  2  0  0  0
  5  4  1  0  0  0
  6  5  2  0  0  0
  6  1  1  0  0  0
  7  8  2  0  0  0
  7 12  1  0  0  0
  8  9  1  0  0  0
  9 10  2  0  0  0
 10 13  1  0  0  0
 11 10  1  0  0  0
 12 11  2  0  0  0
 13 14  1  0  0  0
 15 17  1  0  0  0
 15 13  1  0  0  0
 16 15  2  0  0  0
 17 19  1  0  0  0
 18 12  1  0  0  0
M  END
>  <CHROM.0>
10.89960619,65.87269278,171.74367826,-115.32409899,6.25607009,-76.16239562
69.38534699

>  <CHROM.1>
-119.62911724,73.28992988,171.68646672,-83.87504405,25.22734094,20.57031173
14.83732700,2.29211988,1.37543298,-1.49725521

>  <FORMUL>
      FLP    C15 H13 F1 O2

>  <HET>
 FLP  A 701      18

>  <HETNAM>
     FLP FLURBIPROFEN

>  <Name>
FLP.pdb

>  <RI>
0

>  <Rbt.Current_Directory>
/home/malgorzata/Desktop/rDOCK_IFD/Wyniki/4_COX2

>  <Rbt.Executable>
rbdock ($Id: //depot/dev/client3/rdock/2013.1/src/exe/rbdock.cxx#4 $)

>  <Rbt.Library>
libRbt.so (2013.1, Build901 2013/11/27)

>  <Rbt.Parameter_File>
/home/malgorzata/Desktop/rDock_2013.1_src/data/scripts/soft_docking.prm

>  <Rbt.Receptor>
cavity.prm

>  <SCORE>
-30.8137

>  <SCORE.INTER>
-22.3215

>  <SCORE.INTER.CONST>
1

>  <SCORE.INTER.POLAR>
-1.88427

>  <SCORE.INTER.REPUL>
0.0629196

>  <SCORE.INTER.ROT>
3

>  <SCORE.INTER.VDW>
-24.6296

>  <SCORE.INTER.norm>
-1.24009

>  <SCORE.INTRA>
-1.1866

>  <SCORE.INTRA.DIHEDRAL>
1.10314

>  <SCORE.INTRA.DIHEDRAL.0>
5.47211

>  <SCORE.INTRA.POLAR>
0

>  <SCORE.INTRA.POLAR.0>
0

>  <SCORE.INTRA.REPUL>
0

>  <SCORE.INTRA.REPUL.0>
0

>  <SCORE.INTRA.VDW>
-1.40723

>  <SCORE.INTRA.VDW.0>
0.722234

>  <SCORE.INTRA.norm>
-0.0659222

>  <SCORE.RESTR>
1.26003

>  <SCORE.RESTR.CAVITY>
0.252007

>  <SCORE.RESTR.norm>
0.0700019

>  <SCORE.SYSTEM>
-8.56558

>  <SCORE.SYSTEM.CONST>
0

>  <SCORE.SYSTEM.DIHEDRAL>
2.56584

>  <SCORE.SYSTEM.POLAR>
-2.45393

>  <SCORE.SYSTEM.REPUL>
0.64611

>  <SCORE.SYSTEM.VDW>
-4.7357

>  <SCORE.SYSTEM.norm>
-0.475866

>  <SCORE.heavy>
18

>  <SCORE.norm>
-1.71187

$$$$
FLP.pdb
  rDOCK(R)          3D
libRbt.so/2013.1/901 2013/11/27
 19 20  0  0  0  0  0  0  0  0999 V2000
   26.7716   24.8927   12.5853 C   0  0  0  0  0  0
   26.3140   24.1813   13.7164 C   0  0  0  0  0  0
   25.1383   23.4412   13.6429 C   0  0  0  0  0  0
   24.4246   23.4134   12.4434 C   0  0  0  0  0  0
   24.8878   24.1245   11.3199 C   0  0  0  0  0  0
   26.0635   24.8639   11.3965 C   0  0  0  0  0  0
   24.6145   22.6996   14.8542 C   0  0  0  0  0  0
   25.2073   22.8597   16.1301 C   0  0  0  0  0  0
   24.6734   22.1604   17.2553 C   0  0  0  0  0  0
   23.5362   21.2998   17.0745 C   0  0  0  0  0  0
   22.9626   21.1599   15.8166 C   0  0  0  0  0  0
   23.4873   21.8408   14.7135 C   0  0  0  0  0  0
   22.9958   20.4595   18.2132 C   0  0  0  0  0  0
   23.7713   19.1494   18.3295 C   0  0  0  0  0  0
   21.5199   20.1787   17.9330 C   0  0  0  0  0  0
   21.2026   19.3614   17.1045 O   0  0  0  0  0  0
   20.5846   20.8399   18.5622 O   0  0  0  0  0  0
   22.9139   21.6594   13.4941 F   0  0  0  0  0  0
   19.6886   20.5789   18.4775 H   0  0  0  0  0  0
  1  2  2  0  0  0
  2  3  1  0  0  0
  3  7  1  0  0  0
  4  3  2  0  0  0
  5  4  1  0  0  0
  6  5  2  0  0  0
  6  1  1  0  0  0
  7  8  2  0  0  0
  7 12  1  0  0  0
  8  9  1  0  0  0
  9 10  2  0  0  0
 10 13  1  0  0  0
 11 10  1  0  0  0
 12 11  2  0  0  0
 13 14  1  0  0  0
 15 17  1  0  0  0
 15 13  1  0  0  0
 16 15  2  0  0  0
 17 19  1  0  0  0
 18 12  1  0  0  0
M  END
>  <CHROM.0>
15.76792924,-89.73872278,17.12133862,-65.49342927,56.50463884,-54.89119450
53.04776969

>  <CHROM.1>
7.56287580,-84.21038160,-171.18234220,75.74535865,23.83533146,22.05593954
15.30521136,-1.01981242,0.48112433,1.92502757

>  <FORMUL>
      FLP    C15 H13 F1 O2

>  <HET>
 FLP  A 701      18

>  <HETNAM>
     FLP FLURBIPROFEN

>  <Name>
FLP.pdb

>  <RI>
0

>  <Rbt.Current_Directory>
/home/malgorzata/Desktop/rDOCK_IFD/Wyniki/4_COX2

>  <Rbt.Executable>
rbdock ($Id: //depot/dev/client3/rdock/2013.1/src/exe/rbdock.cxx#4 $)

>  <Rbt.Library>
libRbt.so (2013.1, Build901 2013/11/27)

>  <Rbt.Parameter_File>
/home/malgorzata/Desktop/rDock_2013.1_src/data/scripts/soft_docking.prm

>  <Rbt.Receptor>
cavity.prm

>  <SCORE>
-27.5037

>  <SCORE.INTER>
-20.9937

>  <SCORE.INTER.CONST>
1

>  <SCORE.INTER.POLAR>
-1.53852

>  <SCORE.INTER.REPUL>
0

>  <SCORE.INTER.ROT>
3

>  <SCORE.INTER.VDW>
-24.1627

>  <SCORE.INTER.norm>
-1.16632

>  <SCORE.INTRA>
1.19737

>  <SCORE.INTRA.DIHEDRAL>
-1.75097

>  <SCORE.INTRA.DIHEDRAL.0>
5.47211

>  <SCORE.INTRA.POLAR>
0

>  <SCORE.INTRA.POLAR.0>
0

>  <SCORE.INTRA.REPUL>
0

>  <SCORE.INTRA.REPUL.0>
0

>  <SCORE.INTRA.VDW>
1.54756

>  <SCORE.INTRA.VDW.0>
0.722234

>  <SCORE.INTRA.norm>
0.0665206

>  <SCORE.RESTR>
0

>  <SCORE.RESTR.CAVITY>
0

>  <SCORE.RESTR.norm>
0

>  <SCORE.SYSTEM>
-7.70737

>  <SCORE.SYSTEM.CONST>
0

>  <SCORE.SYSTEM.DIHEDRAL>
8.29728

>  <SCORE.SYSTEM.POLAR>
-3.43351

>  <SCORE.SYSTEM.REPUL>
0.994264

>  <SCORE.SYSTEM.VDW>
-5.15341

>  <SCORE.SYSTEM.norm>
-0.428187

>  <SCORE.heavy>
18

>  <SCORE.norm>
-1.52798

$$$$
FLP.pdb
  rDOCK(R)          3D
libRbt.so/2013.1/901 2013/11/27
 19 20  0  0  0  0  0  0  0  0999 V2000
   25.3853   24.7367   11.3607 C   0  0  0  0  0  0
   25.2096   24.1163   12.6173 C   0  0  0  0  0  0
   24.3293   23.0469   12.7471 C   0  0  0  0  0  0
   23.6289   22.6009   11.6249 C   0  0  0  0  0  0
   23.8102   23.2240   10.3753 C   0  0  0  0  0  0
   24.6909   24.2934   10.2487 C   0  0  0  0  0  0
   24.1026   22.3910   14.0924 C   0  0  0  0  0  0
   25.0321   21.4669   14.6283 C   0  0  0  0  0  0
   24.7964   20.8833   15.9105 C   0  0  0  0  0  0
   23.6126   21.2447   16.6415 C   0  0  0  0  0  0
   22.7145   22.1586   16.1036 C   0  0  0  0  0  0
   22.9422   22.7272   14.8465 C   0  0  0  0  0  0
   23.2661   20.5793   17.9576 C   0  0  0  0  0  0
   24.2983   19.5099   18.3073 C   0  0  0  0  0  0
   21.8794   19.9521   17.8183 C   0  0  0  0  0  0
   21.7041   19.0233   17.0688 O   0  0  0  0  0  0
   20.8614   20.4312   18.4831 O   0  0  0  0  0  0
   22.0284   23.5988   14.3427 F   0  0  0  0  0  0
   20.9932   21.1069   19.1188 H   0  0  0  0  0  0
  1  2  2  0  0  0
  2  3  1  0  0  0
  3  7  1  0  0  0
  4  3  2  0  0  0
  5  4  1  0  0  0
  6  5  2  0  0  0
  6  1  1  0  0  0
  7  8  2  0  0  0
  7 12  1  0  0  0
  8  9  1  0  0  0
  9 10  2  0  0  0
 10 13  1  0  0  0
 11 10  1  0  0  0
 12 11  2  0  0  0
 13 14  1  0  0  0
 15 17  1  0  0  0
 15 13  1  0  0  0
 16 15  2  0  0  0
 17 19  1  0  0  0
 18 12  1  0  0  0
M  END
>  <CHROM.0>
-174.30370893,-93.50578194,-7.93307409,-58.57705298,164.92339788,-76.06498460
76.20307738

>  <CHROM.1>
-78.65569471,-1.78960788,-6.41116784,66.76191618,23.47760022,21.96123067
14.83404651,-1.29991172,-0.18269301,2.15005072

>  <FORMUL>
      FLP    C15 H13 F1 O2

>  <HET>
 FLP  A 701      18

>  <HETNAM>
     FLP FLURBIPROFEN

>  <Name>
FLP.pdb

>  <RI>
0

>  <Rbt.Current_Directory>
/home/malgorzata/Desktop/rDOCK_IFD/Wyniki/4_COX2

>  <Rbt.Executable>
rbdock ($Id: //depot/dev/client3/rdock/2013.1/src/exe/rbdock.cxx#4 $)

>  <Rbt.Library>
libRbt.so (2013.1, Build901 2013/11/27)

>  <Rbt.Parameter_File>
/home/malgorzata/Desktop/rDock_2013.1_src/data/scripts/soft_docking.prm

>  <Rbt.Receptor>
cavity.prm

>  <SCORE>
-31.4692

>  <SCORE.INTER>
-28.0607

>  <SCORE.INTER.CONST>
1

>  <SCORE.INTER.POLAR>
-2.34999

>  <SCORE.INTER.REPUL>
0

>  <SCORE.INTER.ROT>
3

>  <SCORE.INTER.VDW>
-28.4707

>  <SCORE.INTER.norm>
-1.55893

>  <SCORE.INTRA>
1.01175

>  <SCORE.INTRA.DIHEDRAL>
2.45893

>  <SCORE.INTRA.DIHEDRAL.0>
5.47211

>  <SCORE.INTRA.POLAR>
0

>  <SCORE.INTRA.POLAR.0>
0

>  <SCORE.INTRA.REPUL>
0

>  <SCORE.INTRA.REPUL.0>
0

>  <SCORE.INTRA.VDW>
0.519968

>  <SCORE.INTRA.VDW.0>
0.722234

>  <SCORE.INTRA.norm>
0.0562085

>  <SCORE.RESTR>
2.16513

>  <SCORE.RESTR.CAVITY>
0.433025

>  <SCORE.RESTR.norm>
0.120285

>  <SCORE.SYSTEM>
-6.5854

>  <SCORE.SYSTEM.CONST>
0

>  <SCORE.SYSTEM.DIHEDRAL>
7.59844

>  <SCORE.SYSTEM.POLAR>
-2.3574

>  <SCORE.SYSTEM.REPUL>
0.64611

>  <SCORE.SYSTEM.VDW>
-5.6

>  <SCORE.SYSTEM.norm>
-0.365855

>  <SCORE.heavy>
18

>  <SCORE.norm>
-1.74829

$$$$
FLP.pdb
  rDOCK(R)          3D
libRbt.so/2013.1/901 2013/11/27
 19 20  0  0  0  0  0  0  0  0999 V2000
   24.5190   23.8095   10.1159 C   0  0  0  0  0  0
   24.3257   23.0623   11.2988 C   0  0  0  0  0  0
   25.3515   22.9630   12.2333 C   0  0  0  0  0  0
   26.5642   23.6083   11.9849 C   0  0  0  0  0  0
   26.7489   24.3522   10.8038 C   0  0  0  0  0  0
   25.7215   24.4494    9.8710 C   0  0  0  0  0  0
   25.1747   22.1391   13.4909 C   0  0  0  0  0  0
   24.2569   21.0621   13.5439 C   0  0  0  0  0  0
   24.1315   20.2926   14.7407 C   0  0  0  0  0  0
   24.9432   20.6251   15.8796 C   0  0  0  0  0  0
   25.8439   21.6809   15.8077 C   0  0  0  0  0  0
   25.9642   22.4375   14.6379 C   0  0  0  0  0  0
   24.7762   19.9059   17.2024 C   0  0  0  0  0  0
   26.1098   19.8233   17.9413 C   0  0  0  0  0  0
   24.2431   18.5032   16.9125 C   0  0  0  0  0  0
   23.2435   18.1071   17.4594 O   0  0  0  0  0  0
   24.8773   17.7049   16.0951 O   0  0  0  0  0  0
   26.8388   23.4783   14.6139 F   0  0  0  0  0  0
   24.4101   17.0311   15.6416 H   0  0  0  0  0  0
  1  2  2  0  0  0
  2  3  1  0  0  0
  3  7  1  0  0  0
  4  3  2  0  0  0
  5  4  1  0  0  0
  6  5  2  0  0  0
  6  1  1  0  0  0
  7  8  2  0  0  0
  7 12  1  0  0  0
  8  9  1  0  0  0
  9 10  2  0  0  0
 10 13  1  0  0  0
 11 10  1  0  0  0
 12 11  2  0  0  0
 13 14  1  0  0  0
 15 17  1  0  0  0
 15 13  1  0  0  0
 16 15  2  0  0  0
 17 19  1  0  0  0
 18 12  1  0  0  0
M  END
>  <CHROM.0>
17.19078564,59.68016761,26.61660471,-65.65892046,-137.64109943,-155.80766981
42.85412989

>  <CHROM.1>
25.13251125,148.40890549,-154.21143665,-126.40564299,25.21967792,21.48540946
14.24943937,1.37027414,-0.77656545,-1.01027213

>  <FORMUL>
      FLP    C15 H13 F1 O2

>  <HET>
 FLP  A 701      18

>  <HETNAM>
     FLP FLURBIPROFEN

>  <Name>
FLP.pdb

>  <RI>
0

>  <Rbt.Current_Directory>
/home/malgorzata/Desktop/rDOCK_IFD/Wyniki/4_COX2

>  <Rbt.Executable>
rbdock ($Id: //depot/dev/client3/rdock/2013.1/src/exe/rbdock.cxx#4 $)

>  <Rbt.Library>
libRbt.so (2013.1, Build901 2013/11/27)

>  <Rbt.Parameter_File>
/home/malgorzata/Desktop/rDock_2013.1_src/data/scripts/soft_docking.prm

>  <Rbt.Receptor>
cavity.prm

>  <SCORE>
-27.1028

>  <SCORE.INTER>
-21.0439

>  <SCORE.INTER.CONST>
1

>  <SCORE.INTER.POLAR>
-2.38157

>  <SCORE.INTER.REPUL>
0.189977

>  <SCORE.INTER.ROT>
3

>  <SCORE.INTER.VDW>
-22.2964

>  <SCORE.INTER.norm>
-1.1691

>  <SCORE.INTRA>
1.88482

>  <SCORE.INTRA.DIHEDRAL>
1.69209

>  <SCORE.INTRA.DIHEDRAL.0>
5.47211

>  <SCORE.INTRA.POLAR>
0

>  <SCORE.INTRA.POLAR.0>
0

>  <SCORE.INTRA.REPUL>
0

>  <SCORE.INTRA.REPUL.0>
0

>  <SCORE.INTRA.VDW>
1.5464

>  <SCORE.INTRA.VDW.0>
0.722234

>  <SCORE.INTRA.norm>
0.104712

>  <SCORE.RESTR>
0.405629

>  <SCORE.RESTR.CAVITY>
0.0811257

>  <SCORE.RESTR.norm>
0.0225349

>  <SCORE.SYSTEM>
-8.34942

>  <SCORE.SYSTEM.CONST>
0

>  <SCORE.SYSTEM.DIHEDRAL>
7.675

>  <SCORE.SYSTEM.POLAR>
-3.05443

>  <SCORE.SYSTEM.REPUL>
0.688395

>  <SCORE.SYSTEM.VDW>
-5.24383

>  <SCORE.SYSTEM.norm>
-0.463856

>  <SCORE.heavy>
18

>  <SCORE.norm>
-1.50571

$$$$
FLP.pdb
  rDOCK(R)          3D
libRbt.so/2013.1/901 2013/11/27
 19 20  0  0  0  0  0  0  0  0999 V2000
   24.2493   23.0915   10.7257 C   0  0  0  0  0  0
   24.5412   22.8145   12.0796 C   0  0  0  0  0  0
   25.8310   23.0043   12.5650 C   0  0  0  0  0  0
   26.8232   23.4688   11.6998 C   0  0  0  0  0  0
   26.5241   23.7435   10.3516 C   0  0  0  0  0  0
   25.2335   23.5525    9.8689 C   0  0  0  0  0  0
   26.1707   22.6811   14.0044 C   0  0  0  0  0  0
   26.0942   21.3571   14.5007 C   0  0  0  0  0  0
   26.4427   21.0853   15.8589 C   0  0  0  0  0  0
   26.8680   22.1659   16.7062 C   0  0  0  0  0  0
   26.9441   23.4580   16.2007 C   0  0  0  0  0  0
   26.5989   23.7258   14.8722 C   0  0  0  0  0  0
   27.1510   21.9476   18.1784 C   0  0  0  0  0  0
   28.5724   21.4280   18.3811 C   0  0  0  0  0  0
   26.1360   20.9356   18.7088 C   0  0  0  0  0  0
   26.5012   20.0021   19.3798 O   0  0  0  0  0  0
   24.8671   21.0495   18.4180 O   0  0  0  0  0  0
   26.6627   25.0066   14.4207 F   0  0  0  0  0  0
   24.2666   20.3755   18.6690 H   0  0  0  0  0  0
  1  2  2  0  0  0
  2  3  1  0  0  0
  3  7  1  0  0  0
  4  3  2  0  0  0
  5  4  1  0  0  0
  6  5  2  0  0  0
  6  1  1  0  0  0
  7  8  2  0  0  0
  7 12  1  0  0  0
  8  9  1  0  0  0
  9 10  2  0  0  0
 10 13  1  0  0  0
 11 10  1  0  0  0
 12 11  2  0  0  0
 13 14  1  0  0  0
 15 17  1  0  0  0
 15 13  1  0  0  0
 16 15  2  0  0  0
 17 19  1  0  0  0
 18 12  1  0  0  0
M  END
>  <CHROM.0>
-3.30113481,177.90334570,34.80837347,-30.58710066,-1.10883250,-62.19268004
44.76390045

>  <CHROM.1>
64.03807498,83.89452928,173.37559910,132.32405159,26.24041551,22.46980219
14.95225147,1.75900853,-0.75956264,-1.12039058

>  <FORMUL>
      FLP    C15 H13 F1 O2

>  <HET>
 FLP  A 701      18

>  <HETNAM>
     FLP FLURBIPROFEN

>  <Name>
FLP.pdb

>  <RI>
0

>  <Rbt.Current_Directory>
/home/malgorzata/Desktop/rDOCK_IFD/Wyniki/4_COX2

>  <Rbt.Executable>
rbdock ($Id: //depot/dev/client3/rdock/2013.1/src/exe/rbdock.cxx#4 $)

>  <Rbt.Library>
libRbt.so (2013.1, Build901 2013/11/27)

>  <Rbt.Parameter_File>
/home/malgorzata/Desktop/rDock_2013.1_src/data/scripts/soft_docking.prm

>  <Rbt.Receptor>
cavity.prm

>  <SCORE>
-28.7034

>  <SCORE.INTER>
-16.7791

>  <SCORE.INTER.CONST>
1

>  <SCORE.INTER.POLAR>
-0.266476

>  <SCORE.INTER.REPUL>
0

>  <SCORE.INTER.ROT>
3

>  <SCORE.INTER.VDW>
-24.273

>  <SCORE.INTER.norm>
-0.93217

>  <SCORE.INTRA>
-0.47158

>  <SCORE.INTRA.DIHEDRAL>
0.258853

>  <SCORE.INTRA.DIHEDRAL.0>
5.47211

>  <SCORE.INTRA.POLAR>
0

>  <SCORE.INTRA.POLAR.0>
0

>  <SCORE.INTRA.REPUL>
0

>  <SCORE.INTRA.REPUL.0>
0

>  <SCORE.INTRA.VDW>
-0.523351

>  <SCORE.INTRA.VDW.0>
0.722234

>  <SCORE.INTRA.norm>
-0.0261989

>  <SCORE.RESTR>
0

>  <SCORE.RESTR.CAVITY>
0

>  <SCORE.RESTR.norm>
0

>  <SCORE.SYSTEM>
-11.4527

>  <SCORE.SYSTEM.CONST>
0

>  <SCORE.SYSTEM.DIHEDRAL>
2.97992

>  <SCORE.SYSTEM.POLAR>
-3.33594

>  <SCORE.SYSTEM.REPUL>
0.64611

>  <SCORE.SYSTEM.VDW>
-4.83107

>  <SCORE.SYSTEM.norm>
-0.636263

>  <SCORE.heavy>
18

>  <SCORE.norm>
-1.59463

$$$$
