HMD.pdb
  rDOCK(R)          3D
libRbt.so/2013.1/901 2013/11/27
 24 26  0  0  0  0  0  0  0  0999 V2000
   -2.7264   33.6021   12.8370 Br  0  0  0  0  0  0
   -5.6595   29.1576   12.2720 O   0  0  0  0  0  0
   -0.7978   27.8336    6.9485 O   0  0  0  0  0  0
   -3.7997   31.1227   12.2219 N   0  0  0  0  0  0
   -4.3469   27.6917   11.1004 N   0  0  0  0  0  0
    0.7028   29.5751    7.0242 N   0  0  0  0  0  0
   -0.2509   30.8150    8.6350 N   0  0  0  0  0  0
    1.7213   31.5954    7.6823 N   0  0  0  0  0  0
   -2.9055   32.0431   11.8549 C   0  0  0  0  0  0
   -2.2205   31.6501   10.7428 C   0  0  0  0  0  0
   -2.7255   30.3680   10.3963 C   0  0  0  0  0  0
   -3.7345   30.0798   11.3663 C   0  0  0  0  0  0
   -4.6377   28.9457   11.6058 C   0  0  0  0  0  0
   -3.1854   27.2774   10.2950 C   0  0  0  0  0  0
   -2.9937   28.1094    9.0398 C   0  0  0  0  0  0
   -2.2271   29.4044    9.2930 C   0  0  0  0  0  0
   -1.0859   29.6919    8.5364 C   0  0  0  0  0  0
   -0.4090   28.9122    7.4229 C   0  0  0  0  0  0
    0.7694   30.6861    7.7671 C   0  0  0  0  0  0
   -4.4087   31.1927   12.9922 H   0  0  0  0  0  0
   -5.0005   26.9847   11.3055 H   0  0  0  0  0  0
   -0.3896   31.5769    9.2429 H   0  0  0  0  0  0
    2.4576   31.4788    7.0393 H   0  0  0  0  0  0
    1.6953   32.3907    8.2621 H   0  0  0  0  0  0
  1  9  1  0  0  0
  2 13  2  0  0  0
  3 18  2  0  0  0
  4  9  1  0  0  0
  4 12  1  0  0  0
  4 20  1  0  0  0
  5 13  1  0  0  0
  5 14  1  0  0  0
  5 21  1  0  0  0
  6 18  1  0  0  0
  6 19  2  0  0  0
  7 17  1  0  0  0
  7 19  1  0  0  0
  7 22  1  0  0  0
  8 19  1  0  0  0
  8 23  1  0  0  0
  8 24  1  0  0  0
  9 10  2  0  0  0
 10 11  1  0  0  0
 11 12  2  0  0  0
 11 16  1  0  0  0
 12 13  1  0  0  0
 14 15  1  0  0  0
 15 16  1  0  0  0
 16 17  2  0  0  0
 17 18  1  0  0  0
M  END
>  <CHROM.0>
60.24071489,178.48721478,33.36878956,-101.12111567,-82.61639591,65.11155455

>  <CHROM.1>
-2.25140515,30.65678880,10.44905108,-2.17448613,-0.67202131,-2.57288854

>  <FORMUL>
      HMD    C11 H10 Br1 N5 O2

>  <HET>
 HMD  A 400      19

>  <HETNAM>
     HMD 4-(5-AMINO-4-OXO-4H-PYRAZOL-3-YL)-2-BROMO-4,5,6,7-TETRA
   2 HMD HYDRO-3AH-PYRROLO[2,3-C]AZEPIN-8-ONE

>  <HETSYN>
     HMD HYMENIALDISINE

>  <Name>
HMD.pdb

>  <RI>
3.58785e+07

>  <Rbt.Current_Directory>
/home/malgorzata/Desktop/rDOCK_IFD/Wyniki/2b_CDK2/IFD

>  <Rbt.Executable>
rbdock ($Id: //depot/dev/client3/rdock/2013.1/src/exe/rbdock.cxx#4 $)

>  <Rbt.Library>
libRbt.so (2013.1, Build901 2013/11/27)

>  <Rbt.Parameter_File>
/home/malgorzata/Desktop/rDock_2013.1_src/data/scripts/dock.prm

>  <Rbt.Receptor>
cavity.prm

>  <SCORE>
-23.0921

>  <SCORE.INTER>
-15.6785

>  <SCORE.INTER.CONST>
1

>  <SCORE.INTER.POLAR>
0

>  <SCORE.INTER.REPUL>
0.0363325

>  <SCORE.INTER.ROT>
0

>  <SCORE.INTER.VDW>
-21.2602

>  <SCORE.INTER.norm>
-0.825186

>  <SCORE.INTRA>
0

>  <SCORE.INTRA.DIHEDRAL>
0

>  <SCORE.INTRA.DIHEDRAL.0>
0

>  <SCORE.INTRA.POLAR>
0

>  <SCORE.INTRA.POLAR.0>
0

>  <SCORE.INTRA.REPUL>
0

>  <SCORE.INTRA.REPUL.0>
0

>  <SCORE.INTRA.VDW>
0

>  <SCORE.INTRA.VDW.0>
0

>  <SCORE.INTRA.norm>
0

>  <SCORE.RESTR>
0

>  <SCORE.RESTR.CAVITY>
0

>  <SCORE.RESTR.norm>
0

>  <SCORE.SYSTEM>
-7.4136

>  <SCORE.SYSTEM.CONST>
0

>  <SCORE.SYSTEM.DIHEDRAL>
2.4239

>  <SCORE.SYSTEM.POLAR>
-0.218112

>  <SCORE.SYSTEM.REPUL>
0.0767332

>  <SCORE.SYSTEM.VDW>
-8.26763

>  <SCORE.SYSTEM.norm>
-0.390189

>  <SCORE.heavy>
19

>  <SCORE.norm>
-1.21538

$$$$
HMD.pdb
  rDOCK(R)          3D
libRbt.so/2013.1/901 2013/11/27
 24 26  0  0  0  0  0  0  0  0999 V2000
   -2.7621   33.5759   12.8375 Br  0  0  0  0  0  0
   -5.7558   29.1682   12.3019 O   0  0  0  0  0  0
   -0.9466   27.7699    6.9498 O   0  0  0  0  0  0
   -3.8712   31.1090   12.2352 N   0  0  0  0  0  0
   -4.4699   27.6829   11.1252 N   0  0  0  0  0  0
    0.5767   29.4921    7.0116 N   0  0  0  0  0  0
   -0.3504   30.7478    8.6258 N   0  0  0  0  0  0
    1.6255   31.5006    7.6585 N   0  0  0  0  0  0
   -2.9677   32.0171   11.8602 C   0  0  0  0  0  0
   -2.2951   31.6128   10.7445 C   0  0  0  0  0  0
   -2.8188   30.3366   10.4043 C   0  0  0  0  0  0
   -3.8251   30.0635   11.3815 C   0  0  0  0  0  0
   -4.7412   28.9417   11.6295 C   0  0  0  0  0  0
   -3.3191   27.2520   10.3131 C   0  0  0  0  0  0
   -3.1249   28.0786    9.0548 C   0  0  0  0  0  0
   -2.3401   29.3642    9.3000 C   0  0  0  0  0  0
   -1.2003   29.6353    8.5352 C   0  0  0  0  0  0
   -0.5408   28.8444    7.4191 C   0  0  0  0  0  0
    0.6625   30.6037    7.7515 C   0  0  0  0  0  0
   -4.4742   31.1887   13.0093 H   0  0  0  0  0  0
   -5.1311   26.9849   11.3361 H   0  0  0  0  0  0
   -0.4752   31.5127    9.2329 H   0  0  0  0  0  0
    2.3560   31.3730    7.0109 H   0  0  0  0  0  0
    1.6135   32.2974    8.2365 H   0  0  0  0  0  0
  1  9  1  0  0  0
  2 13  2  0  0  0
  3 18  2  0  0  0
  4  9  1  0  0  0
  4 12  1  0  0  0
  4 20  1  0  0  0
  5 13  1  0  0  0
  5 14  1  0  0  0
  5 21  1  0  0  0
  6 18  1  0  0  0
  6 19  2  0  0  0
  7 17  1  0  0  0
  7 19  1  0  0  0
  7 22  1  0  0  0
  8 19  1  0  0  0
  8 23  1  0  0  0
  8 24  1  0  0  0
  9 10  2  0  0  0
 10 11  1  0  0  0
 11 12  2  0  0  0
 11 16  1  0  0  0
 12 13  1  0  0  0
 14 15  1  0  0  0
 15 16  1  0  0  0
 16 17  2  0  0  0
 17 18  1  0  0  0
M  END
>  <CHROM.0>
-58.43870712,178.62910949,33.23826794,-112.16155458,85.97959569,174.28559720

>  <CHROM.1>
-2.34072299,30.61933764,10.45327007,-2.15612625,-0.67054798,-2.56372883

>  <FORMUL>
      HMD    C11 H10 Br1 N5 O2

>  <HET>
 HMD  A 400      19

>  <HETNAM>
     HMD 4-(5-AMINO-4-OXO-4H-PYRAZOL-3-YL)-2-BROMO-4,5,6,7-TETRA
   2 HMD HYDRO-3AH-PYRROLO[2,3-C]AZEPIN-8-ONE

>  <HETSYN>
     HMD HYMENIALDISINE

>  <Name>
HMD.pdb

>  <RI>
3.58785e+07

>  <Rbt.Current_Directory>
/home/malgorzata/Desktop/rDOCK_IFD/Wyniki/2b_CDK2/IFD

>  <Rbt.Executable>
rbdock ($Id: //depot/dev/client3/rdock/2013.1/src/exe/rbdock.cxx#4 $)

>  <Rbt.Library>
libRbt.so (2013.1, Build901 2013/11/27)

>  <Rbt.Parameter_File>
/home/malgorzata/Desktop/rDock_2013.1_src/data/scripts/dock.prm

>  <Rbt.Receptor>
cavity.prm

>  <SCORE>
-22.8761

>  <SCORE.INTER>
-15.7043

>  <SCORE.INTER.CONST>
1

>  <SCORE.INTER.POLAR>
0

>  <SCORE.INTER.REPUL>
0.0503797

>  <SCORE.INTER.ROT>
0

>  <SCORE.INTER.VDW>
-21.3562

>  <SCORE.INTER.norm>
-0.826542

>  <SCORE.INTRA>
0

>  <SCORE.INTRA.DIHEDRAL>
0

>  <SCORE.INTRA.DIHEDRAL.0>
0

>  <SCORE.INTRA.POLAR>
0

>  <SCORE.INTRA.POLAR.0>
0

>  <SCORE.INTRA.REPUL>
0

>  <SCORE.INTRA.REPUL.0>
0

>  <SCORE.INTRA.VDW>
0

>  <SCORE.INTRA.VDW.0>
0

>  <SCORE.INTRA.norm>
0

>  <SCORE.RESTR>
0

>  <SCORE.RESTR.CAVITY>
0

>  <SCORE.RESTR.norm>
0

>  <SCORE.SYSTEM>
-7.17177

>  <SCORE.SYSTEM.CONST>
0

>  <SCORE.SYSTEM.DIHEDRAL>
2.47247

>  <SCORE.SYSTEM.POLAR>
-0.219204

>  <SCORE.SYSTEM.REPUL>
0.0751561

>  <SCORE.SYSTEM.VDW>
-8.03849

>  <SCORE.SYSTEM.norm>
-0.377462

>  <SCORE.heavy>
19

>  <SCORE.norm>
-1.204

$$$$
HMD.pdb
  rDOCK(R)          3D
libRbt.so/2013.1/901 2013/11/27
 24 26  0  0  0  0  0  0  0  0999 V2000
    3.5529   28.1301    7.2754 Br  0  0  0  0  0  0
    3.9055   23.5459   10.0207 O   0  0  0  0  0  0
    8.6322   21.8774    4.6724 O   0  0  0  0  0  0
    4.2013   25.6669    8.3664 N   0  0  0  0  0  0
    5.8486   22.5531    9.3253 N   0  0  0  0  0  0
    8.7753   23.7573    3.3548 N   0  0  0  0  0  0
    7.2505   25.0459    4.3826 N   0  0  0  0  0  0
    8.3602   25.9288    2.5400 N   0  0  0  0  0  0
    4.3616   26.4651    7.3087 C   0  0  0  0  0  0
    5.1558   25.8816    6.3657 C   0  0  0  0  0  0
    5.5311   24.6153    6.8893 C   0  0  0  0  0  0
    4.8916   24.5238    8.1639 C   0  0  0  0  0  0
    4.8544   23.5093    9.2262 C   0  0  0  0  0  0
    7.0323   22.3728    8.4677 C   0  0  0  0  0  0
    6.6950   22.2387    6.9937 C   0  0  0  0  0  0
    6.5212   23.5848    6.2959 C   0  0  0  0  0  0
    7.2645   23.8683    5.1450 C   0  0  0  0  0  0
    8.2858   23.0351    4.3909 C   0  0  0  0  0  0
    8.1501   24.9399    3.3873 C   0  0  0  0  0  0
    3.6660   25.8774    9.1654 H   0  0  0  0  0  0
    5.7527   21.9100   10.0645 H   0  0  0  0  0  0
    6.6739   25.8262    4.5492 H   0  0  0  0  0  0
    9.0238   25.8274    1.8198 H   0  0  0  0  0  0
    7.8535   26.7683    2.6277 H   0  0  0  0  0  0
  1  9  1  0  0  0
  2 13  2  0  0  0
  3 18  2  0  0  0
  4  9  1  0  0  0
  4 12  1  0  0  0
  4 20  1  0  0  0
  5 13  1  0  0  0
  5 14  1  0  0  0
  5 21  1  0  0  0
  6 18  1  0  0  0
  6 19  2  0  0  0
  7 17  1  0  0  0
  7 19  1  0  0  0
  7 22  1  0  0  0
  8 19  1  0  0  0
  8 23  1  0  0  0
  8 24  1  0  0  0
  9 10  2  0  0  0
 10 11  1  0  0  0
 11 12  2  0  0  0
 11 16  1  0  0  0
 12 13  1  0  0  0
 14 15  1  0  0  0
 15 16  1  0  0  0
 16 17  2  0  0  0
 17 18  1  0  0  0
M  END
>  <CHROM.0>
60.27054056,178.64323085,-84.36806428,117.18753180,85.55856786,65.05746569

>  <CHROM.1>
5.73400329,25.06090915,6.62256635,-3.05310662,-0.83933252,2.43652576

>  <FORMUL>
      HMD    C11 H10 Br1 N5 O2

>  <HET>
 HMD  A 400      19

>  <HETNAM>
     HMD 4-(5-AMINO-4-OXO-4H-PYRAZOL-3-YL)-2-BROMO-4,5,6,7-TETRA
   2 HMD HYDRO-3AH-PYRROLO[2,3-C]AZEPIN-8-ONE

>  <HETSYN>
     HMD HYMENIALDISINE

>  <Name>
HMD.pdb

>  <RI>
3.58785e+07

>  <Rbt.Current_Directory>
/home/malgorzata/Desktop/rDOCK_IFD/Wyniki/2b_CDK2/IFD

>  <Rbt.Executable>
rbdock ($Id: //depot/dev/client3/rdock/2013.1/src/exe/rbdock.cxx#4 $)

>  <Rbt.Library>
libRbt.so (2013.1, Build901 2013/11/27)

>  <Rbt.Parameter_File>
/home/malgorzata/Desktop/rDock_2013.1_src/data/scripts/dock.prm

>  <Rbt.Receptor>
cavity.prm

>  <SCORE>
-16.8482

>  <SCORE.INTER>
-9.10007

>  <SCORE.INTER.CONST>
1

>  <SCORE.INTER.POLAR>
0

>  <SCORE.INTER.REPUL>
0

>  <SCORE.INTER.ROT>
0

>  <SCORE.INTER.VDW>
-14.5001

>  <SCORE.INTER.norm>
-0.478951

>  <SCORE.INTRA>
0

>  <SCORE.INTRA.DIHEDRAL>
0

>  <SCORE.INTRA.DIHEDRAL.0>
0

>  <SCORE.INTRA.POLAR>
0

>  <SCORE.INTRA.POLAR.0>
0

>  <SCORE.INTRA.REPUL>
0

>  <SCORE.INTRA.REPUL.0>
0

>  <SCORE.INTRA.VDW>
0

>  <SCORE.INTRA.VDW.0>
0

>  <SCORE.INTRA.norm>
0

>  <SCORE.RESTR>
0

>  <SCORE.RESTR.CAVITY>
0

>  <SCORE.RESTR.norm>
0

>  <SCORE.SYSTEM>
-7.74815

>  <SCORE.SYSTEM.CONST>
0

>  <SCORE.SYSTEM.DIHEDRAL>
2.21224

>  <SCORE.SYSTEM.POLAR>
-0.263286

>  <SCORE.SYSTEM.REPUL>
0.079945

>  <SCORE.SYSTEM.VDW>
-8.35882

>  <SCORE.SYSTEM.norm>
-0.407797

>  <SCORE.heavy>
19

>  <SCORE.norm>
-0.886748

$$$$
HMD.pdb
  rDOCK(R)          3D
libRbt.so/2013.1/901 2013/11/27
 24 26  0  0  0  0  0  0  0  0999 V2000
    2.6142   24.5361    6.9057 Br  0  0  0  0  0  0
    2.5903   24.2735   12.2542 O   0  0  0  0  0  0
   -2.3475   29.6370   11.4919 O   0  0  0  0  0  0
    2.1229   24.7202    9.6265 N   0  0  0  0  0  0
    0.6533   25.2992   12.9180 N   0  0  0  0  0  0
   -2.6351   29.9053    9.2257 N   0  0  0  0  0  0
   -1.1092   28.4351    8.4829 N   0  0  0  0  0  0
   -2.3502   29.6090    6.9055 N   0  0  0  0  0  0
    1.8747   25.2701    8.4359 C   0  0  0  0  0  0
    1.0545   26.3536    8.5539 C   0  0  0  0  0  0
    0.7580   26.4799    9.9376 C   0  0  0  0  0  0
    1.4682   25.4187   10.5792 C   0  0  0  0  0  0
    1.6023   24.9633   11.9698 C   0  0  0  0  0  0
   -0.5668   26.1058   12.7445 C   0  0  0  0  0  0
   -0.3041   27.4772   12.1491 C   0  0  0  0  0  0
   -0.2212   27.4609   10.6254 C   0  0  0  0  0  0
   -1.0358   28.3194    9.8791 C   0  0  0  0  0  0
   -2.0626   29.3479   10.3194 C   0  0  0  0  0  0
   -2.0560   29.3359    8.1622 C   0  0  0  0  0  0
    2.6916   23.9323    9.7847 H   0  0  0  0  0  0
    0.8140   24.9547   13.8261 H   0  0  0  0  0  0
   -0.5556   27.9361    7.8396 H   0  0  0  0  0  0
   -3.0470   30.2722    6.6960 H   0  0  0  0  0  0
   -1.8729   29.1497    6.1773 H   0  0  0  0  0  0
  1  9  1  0  0  0
  2 13  2  0  0  0
  3 18  2  0  0  0
  4  9  1  0  0  0
  4 12  1  0  0  0
  4 20  1  0  0  0
  5 13  1  0  0  0
  5 14  1  0  0  0
  5 21  1  0  0  0
  6 18  1  0  0  0
  6 19  2  0  0  0
  7 17  1  0  0  0
  7 19  1  0  0  0
  7 22  1  0  0  0
  8 19  1  0  0  0
  8 23  1  0  0  0
  8 24  1  0  0  0
  9 10  2  0  0  0
 10 11  1  0  0  0
 11 12  2  0  0  0
 11 16  1  0  0  0
 12 13  1  0  0  0
 14 15  1  0  0  0
 15 16  1  0  0  0
 16 17  2  0  0  0
 17 18  1  0  0  0
M  END
>  <CHROM.0>
-179.93630612,178.55483149,33.32748463,144.69460090,99.08205296,174.39836218

>  <CHROM.1>
0.52370734,26.49843958,9.43199985,0.18377572,0.82162464,-1.42755300

>  <FORMUL>
      HMD    C11 H10 Br1 N5 O2

>  <HET>
 HMD  A 400      19

>  <HETNAM>
     HMD 4-(5-AMINO-4-OXO-4H-PYRAZOL-3-YL)-2-BROMO-4,5,6,7-TETRA
   2 HMD HYDRO-3AH-PYRROLO[2,3-C]AZEPIN-8-ONE

>  <HETSYN>
     HMD HYMENIALDISINE

>  <Name>
HMD.pdb

>  <RI>
3.58785e+07

>  <Rbt.Current_Directory>
/home/malgorzata/Desktop/rDOCK_IFD/Wyniki/2b_CDK2/IFD

>  <Rbt.Executable>
rbdock ($Id: //depot/dev/client3/rdock/2013.1/src/exe/rbdock.cxx#4 $)

>  <Rbt.Library>
libRbt.so (2013.1, Build901 2013/11/27)

>  <Rbt.Parameter_File>
/home/malgorzata/Desktop/rDock_2013.1_src/data/scripts/dock.prm

>  <Rbt.Receptor>
cavity.prm

>  <SCORE>
-16.8373

>  <SCORE.INTER>
-9.87825

>  <SCORE.INTER.CONST>
1

>  <SCORE.INTER.POLAR>
-1.64853

>  <SCORE.INTER.REPUL>
0

>  <SCORE.INTER.ROT>
0

>  <SCORE.INTER.VDW>
-9.67326

>  <SCORE.INTER.norm>
-0.519908

>  <SCORE.INTRA>
0

>  <SCORE.INTRA.DIHEDRAL>
0

>  <SCORE.INTRA.DIHEDRAL.0>
0

>  <SCORE.INTRA.POLAR>
0

>  <SCORE.INTRA.POLAR.0>
0

>  <SCORE.INTRA.REPUL>
0

>  <SCORE.INTRA.REPUL.0>
0

>  <SCORE.INTRA.VDW>
0

>  <SCORE.INTRA.VDW.0>
0

>  <SCORE.INTRA.norm>
0

>  <SCORE.RESTR>
0

>  <SCORE.RESTR.CAVITY>
0

>  <SCORE.RESTR.norm>
0

>  <SCORE.SYSTEM>
-6.959

>  <SCORE.SYSTEM.CONST>
0

>  <SCORE.SYSTEM.DIHEDRAL>
2.453

>  <SCORE.SYSTEM.POLAR>
-0.218458

>  <SCORE.SYSTEM.REPUL>
0.0762327

>  <SCORE.SYSTEM.VDW>
-7.82391

>  <SCORE.SYSTEM.norm>
-0.366263

>  <SCORE.heavy>
19

>  <SCORE.norm>
-0.886171

$$$$
HMD.pdb
  rDOCK(R)          3D
libRbt.so/2013.1/901 2013/11/27
 24 26  0  0  0  0  0  0  0  0999 V2000
   -1.0739   26.6004   12.5964 Br  0  0  0  0  0  0
    2.7953   23.0033   11.7211 O   0  0  0  0  0  0
    3.9003   27.1330    5.7667 O   0  0  0  0  0  0
    1.1124   25.1222   11.7519 N   0  0  0  0  0  0
    4.2201   23.9772   10.2157 N   0  0  0  0  0  0
    2.4080   28.8758    5.9282 N   0  0  0  0  0  0
    1.3214   28.2602    7.7942 N   0  0  0  0  0  0
    0.6705   30.2357    6.7550 N   0  0  0  0  0  0
    0.2731   26.1075   11.4260 C   0  0  0  0  0  0
    0.5738   26.6272   10.2013 C   0  0  0  0  0  0
    1.7064   25.9097    9.7312 C   0  0  0  0  0  0
    2.0068   24.9574   10.7535 C   0  0  0  0  0  0
    3.0339   23.9205   10.9244 C   0  0  0  0  0  0
    4.6534   24.9899    9.2379 C   0  0  0  0  0  0
    3.6671   25.1928    8.1018 C   0  0  0  0  0  0
    2.5420   26.1618    8.4535 C   0  0  0  0  0  0
    2.2936   27.2627    7.6266 C   0  0  0  0  0  0
    2.9714   27.7171    6.3459 C   0  0  0  0  0  0
    1.4468   29.1706    6.8112 C   0  0  0  0  0  0
    1.0840   24.5998   12.5858 H   0  0  0  0  0  0
    4.8571   23.2465   10.3869 H   0  0  0  0  0  0
    0.6531   28.2894    8.5166 H   0  0  0  0  0  0
    0.7814   30.8879    6.0258 H   0  0  0  0  0  0
   -0.0199   30.3784    7.4422 H   0  0  0  0  0  0
  1  9  1  0  0  0
  2 13  2  0  0  0
  3 18  2  0  0  0
  4  9  1  0  0  0
  4 12  1  0  0  0
  4 20  1  0  0  0
  5 13  1  0  0  0
  5 14  1  0  0  0
  5 21  1  0  0  0
  6 18  1  0  0  0
  6 19  2  0  0  0
  7 17  1  0  0  0
  7 19  1  0  0  0
  7 22  1  0  0  0
  8 19  1  0  0  0
  8 23  1  0  0  0
  8 24  1  0  0  0
  9 10  2  0  0  0
 10 11  1  0  0  0
 11 12  2  0  0  0
 11 16  1  0  0  0
 12 13  1  0  0  0
 14 15  1  0  0  0
 15 16  1  0  0  0
 16 17  2  0  0  0
 17 18  1  0  0  0
M  END
>  <CHROM.0>
-60.57949140,178.55096620,151.03841205,75.69120114,100.22852253,173.10130901

>  <CHROM.1>
1.49535549,26.42406998,9.77307429,2.14515968,-0.64244671,2.27861500

>  <FORMUL>
      HMD    C11 H10 Br1 N5 O2

>  <HET>
 HMD  A 400      19

>  <HETNAM>
     HMD 4-(5-AMINO-4-OXO-4H-PYRAZOL-3-YL)-2-BROMO-4,5,6,7-TETRA
   2 HMD HYDRO-3AH-PYRROLO[2,3-C]AZEPIN-8-ONE

>  <HETSYN>
     HMD HYMENIALDISINE

>  <Name>
HMD.pdb

>  <RI>
3.58785e+07

>  <Rbt.Current_Directory>
/home/malgorzata/Desktop/rDOCK_IFD/Wyniki/2b_CDK2/IFD

>  <Rbt.Executable>
rbdock ($Id: //depot/dev/client3/rdock/2013.1/src/exe/rbdock.cxx#4 $)

>  <Rbt.Library>
libRbt.so (2013.1, Build901 2013/11/27)

>  <Rbt.Parameter_File>
/home/malgorzata/Desktop/rDock_2013.1_src/data/scripts/dock.prm

>  <Rbt.Receptor>
cavity.prm

>  <SCORE>
-23.2668

>  <SCORE.INTER>
-16.167

>  <SCORE.INTER.CONST>
1

>  <SCORE.INTER.POLAR>
-2.28236

>  <SCORE.INTER.REPUL>
0

>  <SCORE.INTER.ROT>
0

>  <SCORE.INTER.VDW>
-13.807

>  <SCORE.INTER.norm>
-0.850896

>  <SCORE.INTRA>
0

>  <SCORE.INTRA.DIHEDRAL>
0

>  <SCORE.INTRA.DIHEDRAL.0>
0

>  <SCORE.INTRA.POLAR>
0

>  <SCORE.INTRA.POLAR.0>
0

>  <SCORE.INTRA.REPUL>
0

>  <SCORE.INTRA.REPUL.0>
0

>  <SCORE.INTRA.VDW>
0

>  <SCORE.INTRA.VDW.0>
0

>  <SCORE.INTRA.norm>
0

>  <SCORE.RESTR>
0

>  <SCORE.RESTR.CAVITY>
0

>  <SCORE.RESTR.norm>
0

>  <SCORE.SYSTEM>
-7.09981

>  <SCORE.SYSTEM.CONST>
0

>  <SCORE.SYSTEM.DIHEDRAL>
2.74499

>  <SCORE.SYSTEM.POLAR>
-0.319472

>  <SCORE.SYSTEM.REPUL>
0.050379

>  <SCORE.SYSTEM.VDW>
-7.63799

>  <SCORE.SYSTEM.norm>
-0.373674

>  <SCORE.heavy>
19

>  <SCORE.norm>
-1.22457

$$$$
HMD.pdb
  rDOCK(R)          3D
libRbt.so/2013.1/901 2013/11/27
 24 26  0  0  0  0  0  0  0  0999 V2000
    0.9306   24.7468   11.6248 Br  0  0  0  0  0  0
    1.8788   28.1238    7.5785 O   0  0  0  0  0  0
    7.4618   23.5282    6.3779 O   0  0  0  0  0  0
    1.7751   26.0767    9.3453 N   0  0  0  0  0  0
    3.2412   26.9894    6.1288 N   0  0  0  0  0  0
    7.2459   21.8585    7.9450 N   0  0  0  0  0  0
    5.4824   22.6498    9.0877 N   0  0  0  0  0  0
    6.4064   20.6285    9.7710 N   0  0  0  0  0  0
    2.0685   25.1018   10.2084 C   0  0  0  0  0  0
    3.2371   24.4824    9.8749 C   0  0  0  0  0  0
    3.7036   25.1209    8.6944 C   0  0  0  0  0  0
    2.7394   26.1342    8.4015 C   0  0  0  0  0  0
    2.5953   27.1421    7.3420 C   0  0  0  0  0  0
    4.1221   25.8920    5.6937 C   0  0  0  0  0  0
    5.2859   25.6427    6.6359 C   0  0  0  0  0  0
    4.9189   24.7445    7.8138 C   0  0  0  0  0  0
    5.6753   23.5956    8.0695 C   0  0  0  0  0  0
    6.8865   23.0232    7.3544 C   0  0  0  0  0  0
    6.3904   21.6654    8.9556 C   0  0  0  0  0  0
    0.9832   26.6599    9.3895 H   0  0  0  0  0  0
    3.0931   27.7067    5.4710 H   0  0  0  0  0  0
    4.7922   22.6987    9.7880 H   0  0  0  0  0  0
    7.0807   19.9208    9.6542 H   0  0  0  0  0  0
    5.7440   20.5626   10.4964 H   0  0  0  0  0  0
  1  9  1  0  0  0
  2 13  2  0  0  0
  3 18  2  0  0  0
  4  9  1  0  0  0
  4 12  1  0  0  0
  4 20  1  0  0  0
  5 13  1  0  0  0
  5 14  1  0  0  0
  5 21  1  0  0  0
  6 18  1  0  0  0
  6 19  2  0  0  0
  7 17  1  0  0  0
  7 19  1  0  0  0
  7 22  1  0  0  0
  8 19  1  0  0  0
  8 23  1  0  0  0
  8 24  1  0  0  0
  9 10  2  0  0  0
 10 11  1  0  0  0
 11 12  2  0  0  0
 11 16  1  0  0  0
 12 13  1  0  0  0
 14 15  1  0  0  0
 15 16  1  0  0  0
 16 17  2  0  0  0
 17 18  1  0  0  0
M  END
>  <CHROM.0>
179.22846176,178.65653276,34.27472789,99.89362237,165.35172151,63.61962198

>  <CHROM.1>
3.63481794,24.61919989,8.92773532,-3.06188352,0.63191518,-0.82014387

>  <FORMUL>
      HMD    C11 H10 Br1 N5 O2

>  <HET>
 HMD  A 400      19

>  <HETNAM>
     HMD 4-(5-AMINO-4-OXO-4H-PYRAZOL-3-YL)-2-BROMO-4,5,6,7-TETRA
   2 HMD HYDRO-3AH-PYRROLO[2,3-C]AZEPIN-8-ONE

>  <HETSYN>
     HMD HYMENIALDISINE

>  <Name>
HMD.pdb

>  <RI>
3.58785e+07

>  <Rbt.Current_Directory>
/home/malgorzata/Desktop/rDOCK_IFD/Wyniki/2b_CDK2/IFD

>  <Rbt.Executable>
rbdock ($Id: //depot/dev/client3/rdock/2013.1/src/exe/rbdock.cxx#4 $)

>  <Rbt.Library>
libRbt.so (2013.1, Build901 2013/11/27)

>  <Rbt.Parameter_File>
/home/malgorzata/Desktop/rDock_2013.1_src/data/scripts/dock.prm

>  <Rbt.Receptor>
cavity.prm

>  <SCORE>
-15.3748

>  <SCORE.INTER>
-8.17287

>  <SCORE.INTER.CONST>
1

>  <SCORE.INTER.POLAR>
-0.0906506

>  <SCORE.INTER.REPUL>
0

>  <SCORE.INTER.ROT>
0

>  <SCORE.INTER.VDW>
-13.2647

>  <SCORE.INTER.norm>
-0.430151

>  <SCORE.INTRA>
0

>  <SCORE.INTRA.DIHEDRAL>
0

>  <SCORE.INTRA.DIHEDRAL.0>
0

>  <SCORE.INTRA.POLAR>
0

>  <SCORE.INTRA.POLAR.0>
0

>  <SCORE.INTRA.REPUL>
0

>  <SCORE.INTRA.REPUL.0>
0

>  <SCORE.INTRA.VDW>
0

>  <SCORE.INTRA.VDW.0>
0

>  <SCORE.INTRA.norm>
0

>  <SCORE.RESTR>
0

>  <SCORE.RESTR.CAVITY>
0

>  <SCORE.RESTR.norm>
0

>  <SCORE.SYSTEM>
-7.20192

>  <SCORE.SYSTEM.CONST>
0

>  <SCORE.SYSTEM.DIHEDRAL>
2.27524

>  <SCORE.SYSTEM.POLAR>
-0.21052

>  <SCORE.SYSTEM.REPUL>
0.0880332

>  <SCORE.SYSTEM.VDW>
-8.06395

>  <SCORE.SYSTEM.norm>
-0.379049

>  <SCORE.heavy>
19

>  <SCORE.norm>
-0.8092

$$$$
HMD.pdb
  rDOCK(R)          3D
libRbt.so/2013.1/901 2013/11/27
 24 26  0  0  0  0  0  0  0  0999 V2000
    1.3867   20.8568   15.0848 Br  0  0  0  0  0  0
   -1.7159   24.9011   13.4435 O   0  0  0  0  0  0
    3.7553   25.8276    8.6542 O   0  0  0  0  0  0
    0.1304   22.9507   13.7750 N   0  0  0  0  0  0
   -0.9879   25.4274   11.3370 N   0  0  0  0  0  0
    5.2363   24.1146    9.0570 N   0  0  0  0  0  0
    4.2297   23.1636   10.8245 N   0  0  0  0  0  0
    6.2076   22.2139   10.0551 N   0  0  0  0  0  0
    1.2609   22.2474   13.8692 C   0  0  0  0  0  0
    2.1982   22.6989   12.9871 C   0  0  0  0  0  0
    1.5921   23.7684   12.2746 C   0  0  0  0  0  0
    0.2766   23.8931   12.8188 C   0  0  0  0  0  0
   -0.8694   24.7724   12.5492 C   0  0  0  0  0  0
   -0.0762   25.3831   10.1810 C   0  0  0  0  0  0
    1.3566   25.7451   10.5280 C   0  0  0  0  0  0
    2.1554   24.5648   11.0735 C   0  0  0  0  0  0
    3.3709   24.2165   10.4746 C   0  0  0  0  0  0
    4.1132   24.8311    9.3011 C   0  0  0  0  0  0
    5.2667   23.1343    9.9674 C   0  0  0  0  0  0
   -0.6795   22.8057   14.3155 H   0  0  0  0  0  0
   -1.7843   25.9967   11.2333 H   0  0  0  0  0  0
    4.0950   22.5444   11.5779 H   0  0  0  0  0  0
    6.9567   22.2132    9.4162 H   0  0  0  0  0  0
    6.1609   21.5278   10.7595 H   0  0  0  0  0  0
  1  9  1  0  0  0
  2 13  2  0  0  0
  3 18  2  0  0  0
  4  9  1  0  0  0
  4 12  1  0  0  0
  4 20  1  0  0  0
  5 13  1  0  0  0
  5 14  1  0  0  0
  5 21  1  0  0  0
  6 18  1  0  0  0
  6 19  2  0  0  0
  7 17  1  0  0  0
  7 19  1  0  0  0
  7 22  1  0  0  0
  8 19  1  0  0  0
  8 23  1  0  0  0
  8 24  1  0  0  0
  9 10  2  0  0  0
 10 11  1  0  0  0
 11 12  2  0  0  0
 11 16  1  0  0  0
 12 13  1  0  0  0
 14 15  1  0  0  0
 15 16  1  0  0  0
 16 17  2  0  0  0
 17 18  1  0  0  0
M  END
>  <CHROM.0>
-59.52962936,178.17930135,151.55090947,-101.07916160,169.81008233,-56.95019368

>  <CHROM.1>
1.90842184,23.31447312,12.20535048,-2.15353717,0.43531299,-0.81109434

>  <FORMUL>
      HMD    C11 H10 Br1 N5 O2

>  <HET>
 HMD  A 400      19

>  <HETNAM>
     HMD 4-(5-AMINO-4-OXO-4H-PYRAZOL-3-YL)-2-BROMO-4,5,6,7-TETRA
   2 HMD HYDRO-3AH-PYRROLO[2,3-C]AZEPIN-8-ONE

>  <HETSYN>
     HMD HYMENIALDISINE

>  <Name>
HMD.pdb

>  <RI>
3.58785e+07

>  <Rbt.Current_Directory>
/home/malgorzata/Desktop/rDOCK_IFD/Wyniki/2b_CDK2/IFD

>  <Rbt.Executable>
rbdock ($Id: //depot/dev/client3/rdock/2013.1/src/exe/rbdock.cxx#4 $)

>  <Rbt.Library>
libRbt.so (2013.1, Build901 2013/11/27)

>  <Rbt.Parameter_File>
/home/malgorzata/Desktop/rDock_2013.1_src/data/scripts/dock.prm

>  <Rbt.Receptor>
cavity.prm

>  <SCORE>
-15.4941

>  <SCORE.INTER>
-8.33796

>  <SCORE.INTER.CONST>
1

>  <SCORE.INTER.POLAR>
-0.582148

>  <SCORE.INTER.REPUL>
0

>  <SCORE.INTER.ROT>
0

>  <SCORE.INTER.VDW>
-11.7587

>  <SCORE.INTER.norm>
-0.43884

>  <SCORE.INTRA>
0

>  <SCORE.INTRA.DIHEDRAL>
0

>  <SCORE.INTRA.DIHEDRAL.0>
0

>  <SCORE.INTRA.POLAR>
0

>  <SCORE.INTRA.POLAR.0>
0

>  <SCORE.INTRA.REPUL>
0

>  <SCORE.INTRA.REPUL.0>
0

>  <SCORE.INTRA.VDW>
0

>  <SCORE.INTRA.VDW.0>
0

>  <SCORE.INTRA.norm>
0

>  <SCORE.RESTR>
0

>  <SCORE.RESTR.CAVITY>
0

>  <SCORE.RESTR.norm>
0

>  <SCORE.SYSTEM>
-7.15613

>  <SCORE.SYSTEM.CONST>
0

>  <SCORE.SYSTEM.DIHEDRAL>
2.51447

>  <SCORE.SYSTEM.POLAR>
-0.31381

>  <SCORE.SYSTEM.REPUL>
0.0556578

>  <SCORE.SYSTEM.VDW>
-7.62471

>  <SCORE.SYSTEM.norm>
-0.376639

>  <SCORE.heavy>
19

>  <SCORE.norm>
-0.815479

$$$$
HMD.pdb
  rDOCK(R)          3D
libRbt.so/2013.1/901 2013/11/27
 24 26  0  0  0  0  0  0  0  0999 V2000
    1.7360   25.2324   12.2408 Br  0  0  0  0  0  0
    4.6820   20.8110   11.5717 O   0  0  0  0  0  0
    6.3883   24.1175    5.2563 O   0  0  0  0  0  0
    3.5057   23.2457   11.4667 N   0  0  0  0  0  0
    6.2146   21.3251    9.9496 N   0  0  0  0  0  0
    5.3217   26.1547    5.3084 N   0  0  0  0  0  0
    4.2134   25.9420    7.2496 N   0  0  0  0  0  0
    3.9628   27.9257    6.0628 N   0  0  0  0  0  0
    2.8878   24.3640   11.0805 C   0  0  0  0  0  0
    3.2383   24.7074    9.8078 C   0  0  0  0  0  0
    4.1642   23.7225    9.3702 C   0  0  0  0  0  0
    4.2959   22.8098   10.4619 C   0  0  0  0  0  0
    5.0784   21.5878   10.6928 C   0  0  0  0  0  0
    6.8133   22.1376    8.8767 C   0  0  0  0  0  0
    5.8443   22.4647    7.7550 C   0  0  0  0  0  0
    4.9752   23.6833    8.0530 C   0  0  0  0  0  0
    4.9356   24.7441    7.1417 C   0  0  0  0  0  0
    5.6369   24.9361    5.8085 C   0  0  0  0  0  0
    4.4895   26.7228    6.1889 C   0  0  0  0  0  0
    3.4021   22.8090   12.3428 H   0  0  0  0  0  0
    6.6839   20.4871   10.1653 H   0  0  0  0  0  0
    3.6015   26.1746    7.9849 H   0  0  0  0  0  0
    4.1800   28.4783    5.2775 H   0  0  0  0  0  0
    3.3525   28.2707    6.7539 H   0  0  0  0  0  0
  1  9  1  0  0  0
  2 13  2  0  0  0
  3 18  2  0  0  0
  4  9  1  0  0  0
  4 12  1  0  0  0
  4 20  1  0  0  0
  5 13  1  0  0  0
  5 14  1  0  0  0
  5 21  1  0  0  0
  6 18  1  0  0  0
  6 19  2  0  0  0
  7 17  1  0  0  0
  7 19  1  0  0  0
  7 22  1  0  0  0
  8 19  1  0  0  0
  8 23  1  0  0  0
  8 24  1  0  0  0
  9 10  2  0  0  0
 10 11  1  0  0  0
 11 12  2  0  0  0
 11 16  1  0  0  0
 12 13  1  0  0  0
 14 15  1  0  0  0
 15 16  1  0  0  0
 16 17  2  0  0  0
 17 18  1  0  0  0
M  END
>  <CHROM.0>
60.94604799,178.27407767,153.14003899,-172.28411167,98.73202328,173.66558749

>  <CHROM.1>
4.07267010,24.27254359,9.37343420,2.30541540,-0.83415872,2.30409596

>  <FORMUL>
      HMD    C11 H10 Br1 N5 O2

>  <HET>
 HMD  A 400      19

>  <HETNAM>
     HMD 4-(5-AMINO-4-OXO-4H-PYRAZOL-3-YL)-2-BROMO-4,5,6,7-TETRA
   2 HMD HYDRO-3AH-PYRROLO[2,3-C]AZEPIN-8-ONE

>  <HETSYN>
     HMD HYMENIALDISINE

>  <Name>
HMD.pdb

>  <RI>
3.58785e+07

>  <Rbt.Current_Directory>
/home/malgorzata/Desktop/rDOCK_IFD/Wyniki/2b_CDK2/IFD

>  <Rbt.Executable>
rbdock ($Id: //depot/dev/client3/rdock/2013.1/src/exe/rbdock.cxx#4 $)

>  <Rbt.Library>
libRbt.so (2013.1, Build901 2013/11/27)

>  <Rbt.Parameter_File>
/home/malgorzata/Desktop/rDock_2013.1_src/data/scripts/dock.prm

>  <Rbt.Receptor>
cavity.prm

>  <SCORE>
-18.8569

>  <SCORE.INTER>
-11.5917

>  <SCORE.INTER.CONST>
1

>  <SCORE.INTER.POLAR>
-0.558601

>  <SCORE.INTER.REPUL>
0

>  <SCORE.INTER.ROT>
0

>  <SCORE.INTER.VDW>
-15.0925

>  <SCORE.INTER.norm>
-0.61009

>  <SCORE.INTRA>
0

>  <SCORE.INTRA.DIHEDRAL>
0

>  <SCORE.INTRA.DIHEDRAL.0>
0

>  <SCORE.INTRA.POLAR>
0

>  <SCORE.INTRA.POLAR.0>
0

>  <SCORE.INTRA.REPUL>
0

>  <SCORE.INTRA.REPUL.0>
0

>  <SCORE.INTRA.VDW>
0

>  <SCORE.INTRA.VDW.0>
0

>  <SCORE.INTRA.norm>
0

>  <SCORE.RESTR>
0

>  <SCORE.RESTR.CAVITY>
0

>  <SCORE.RESTR.norm>
0

>  <SCORE.SYSTEM>
-7.26523

>  <SCORE.SYSTEM.CONST>
0

>  <SCORE.SYSTEM.DIHEDRAL>
2.51597

>  <SCORE.SYSTEM.POLAR>
-0.29609

>  <SCORE.SYSTEM.REPUL>
0.0734099

>  <SCORE.SYSTEM.VDW>
-7.88356

>  <SCORE.SYSTEM.norm>
-0.382381

>  <SCORE.heavy>
19

>  <SCORE.norm>
-0.992471

$$$$
HMD.pdb
  rDOCK(R)          3D
libRbt.so/2013.1/901 2013/11/27
 24 26  0  0  0  0  0  0  0  0999 V2000
   -1.0414   26.7449   12.6002 Br  0  0  0  0  0  0
    2.7707   23.0881   11.7218 O   0  0  0  0  0  0
    3.8744   27.1482    5.7196 O   0  0  0  0  0  0
    1.1167   25.2297   11.7490 N   0  0  0  0  0  0
    4.1940   24.0289   10.1942 N   0  0  0  0  0  0
    2.4073   28.9125    5.8790 N   0  0  0  0  0  0
    1.3302   28.3286    7.7607 N   0  0  0  0  0  0
    0.6961   30.3032    6.7096 N   0  0  0  0  0  0
    0.2877   26.2233   11.4218 C   0  0  0  0  0  0
    0.5837   26.7277   10.1896 C   0  0  0  0  0  0
    1.7021   25.9907    9.7156 C   0  0  0  0  0  0
    1.9994   25.0438   10.7437 C   0  0  0  0  0  0
    3.0140   23.9947   10.9145 C   0  0  0  0  0  0
    4.6316   25.0268    9.2031 C   0  0  0  0  0  0
    3.6374   25.2326    8.0745 C   0  0  0  0  0  0
    2.5287   26.2200    8.4278 C   0  0  0  0  0  0
    2.2873   27.3165    7.5932 C   0  0  0  0  0  0
    2.9589   27.7501    6.3021 C   0  0  0  0  0  0
    1.4585   29.2283    6.7683 C   0  0  0  0  0  0
    1.0893   24.7152   12.5878 H   0  0  0  0  0  0
    4.8228   23.2912   10.3662 H   0  0  0  0  0  0
    0.6694   28.3734    8.4891 H   0  0  0  0  0  0
    0.8089   30.9471    5.9734 H   0  0  0  0  0  0
    0.0143   30.4615    7.4019 H   0  0  0  0  0  0
  1  9  1  0  0  0
  2 13  2  0  0  0
  3 18  2  0  0  0
  4  9  1  0  0  0
  4 12  1  0  0  0
  4 20  1  0  0  0
  5 13  1  0  0  0
  5 14  1  0  0  0
  5 21  1  0  0  0
  6 18  1  0  0  0
  6 19  2  0  0  0
  7 17  1  0  0  0
  7 19  1  0  0  0
  7 22  1  0  0  0
  8 19  1  0  0  0
  8 23  1  0  0  0
  8 24  1  0  0  0
  9 10  2  0  0  0
 10 11  1  0  0  0
 11 12  2  0  0  0
 11 16  1  0  0  0
 12 13  1  0  0  0
 14 15  1  0  0  0
 15 16  1  0  0  0
 16 17  2  0  0  0
 17 18  1  0  0  0
M  END
>  <CHROM.0>
60.00226633,178.19761180,-84.57551086,76.35824169,97.80545314,65.55596473

>  <CHROM.1>
1.49832423,26.50825916,9.75469070,2.14707842,-0.65882595,2.27064656

>  <FORMUL>
      HMD    C11 H10 Br1 N5 O2

>  <HET>
 HMD  A 400      19

>  <HETNAM>
     HMD 4-(5-AMINO-4-OXO-4H-PYRAZOL-3-YL)-2-BROMO-4,5,6,7-TETRA
   2 HMD HYDRO-3AH-PYRROLO[2,3-C]AZEPIN-8-ONE

>  <HETSYN>
     HMD HYMENIALDISINE

>  <Name>
HMD.pdb

>  <RI>
3.58785e+07

>  <Rbt.Current_Directory>
/home/malgorzata/Desktop/rDOCK_IFD/Wyniki/2b_CDK2/IFD

>  <Rbt.Executable>
rbdock ($Id: //depot/dev/client3/rdock/2013.1/src/exe/rbdock.cxx#4 $)

>  <Rbt.Library>
libRbt.so (2013.1, Build901 2013/11/27)

>  <Rbt.Parameter_File>
/home/malgorzata/Desktop/rDock_2013.1_src/data/scripts/dock.prm

>  <Rbt.Receptor>
cavity.prm

>  <SCORE>
-23.7296

>  <SCORE.INTER>
-16.1045

>  <SCORE.INTER.CONST>
1

>  <SCORE.INTER.POLAR>
-2.26005

>  <SCORE.INTER.REPUL>
0

>  <SCORE.INTER.ROT>
0

>  <SCORE.INTER.VDW>
-13.8203

>  <SCORE.INTER.norm>
-0.847603

>  <SCORE.INTRA>
0

>  <SCORE.INTRA.DIHEDRAL>
0

>  <SCORE.INTRA.DIHEDRAL.0>
0

>  <SCORE.INTRA.POLAR>
0

>  <SCORE.INTRA.POLAR.0>
0

>  <SCORE.INTRA.REPUL>
0

>  <SCORE.INTRA.REPUL.0>
0

>  <SCORE.INTRA.VDW>
0

>  <SCORE.INTRA.VDW.0>
0

>  <SCORE.INTRA.norm>
0

>  <SCORE.RESTR>
0

>  <SCORE.RESTR.CAVITY>
0

>  <SCORE.RESTR.norm>
0

>  <SCORE.SYSTEM>
-7.62515

>  <SCORE.SYSTEM.CONST>
0

>  <SCORE.SYSTEM.DIHEDRAL>
2.25943

>  <SCORE.SYSTEM.POLAR>
-0.265585

>  <SCORE.SYSTEM.REPUL>
0.0778245

>  <SCORE.SYSTEM.VDW>
-8.241

>  <SCORE.SYSTEM.norm>
-0.401324

>  <SCORE.heavy>
19

>  <SCORE.norm>
-1.24893

$$$$
HMD.pdb
  rDOCK(R)          3D
libRbt.so/2013.1/901 2013/11/27
 24 26  0  0  0  0  0  0  0  0999 V2000
    3.8552   19.2803   15.4127 Br  0  0  0  0  0  0
   -1.2611   20.3188   16.6049 O   0  0  0  0  0  0
   -0.3136   25.5779   11.5876 O   0  0  0  0  0  0
    1.2247   20.1402   15.5504 N   0  0  0  0  0  0
   -2.0636   21.5694   14.8623 N   0  0  0  0  0  0
    1.8269   25.3049   10.7914 N   0  0  0  0  0  0
    2.5034   23.6248   12.1186 N   0  0  0  0  0  0
    4.0061   24.4433   10.5443 N   0  0  0  0  0  0
    2.4285   20.3979   15.0348 C   0  0  0  0  0  0
    2.4027   21.5172   14.2557 C   0  0  0  0  0  0
    1.0625   21.9886   14.2801 C   0  0  0  0  0  0
    0.3530   21.0798   15.1244 C   0  0  0  0  0  0
   -1.0416   20.9677   15.5736 C   0  0  0  0  0  0
   -1.9714   22.3698   13.6293 C   0  0  0  0  0  0
   -1.0134   23.5421   13.7410 C   0  0  0  0  0  0
    0.4386   23.1541   13.4761 C   0  0  0  0  0  0
    1.1738   23.8463   12.5077 C   0  0  0  0  0  0
    0.7845   25.0005   11.6008 C   0  0  0  0  0  0
    2.8183   24.4675   11.1178 C   0  0  0  0  0  0
    1.0071   19.3867   16.1453 H   0  0  0  0  0  0
   -2.9697   21.4469   15.2271 H   0  0  0  0  0  0
    3.1100   22.9584   12.5151 H   0  0  0  0  0  0
    4.2128   25.0700    9.8138 H   0  0  0  0  0  0
    4.6857   23.7985   10.8469 H   0  0  0  0  0  0
  1  9  1  0  0  0
  2 13  2  0  0  0
  3 18  2  0  0  0
  4  9  1  0  0  0
  4 12  1  0  0  0
  4 20  1  0  0  0
  5 13  1  0  0  0
  5 14  1  0  0  0
  5 21  1  0  0  0
  6 18  1  0  0  0
  6 19  2  0  0  0
  7 17  1  0  0  0
  7 19  1  0  0  0
  7 22  1  0  0  0
  8 19  1  0  0  0
  8 23  1  0  0  0
  8 24  1  0  0  0
  9 10  2  0  0  0
 10 11  1  0  0  0
 11 12  2  0  0  0
 11 16  1  0  0  0
 12 13  1  0  0  0
 14 15  1  0  0  0
 15 16  1  0  0  0
 16 17  2  0  0  0
 17 18  1  0  0  0
M  END
>  <CHROM.0>
-179.52610804,178.68039695,-85.42528006,163.28306225,87.03444259,63.79493993

>  <CHROM.1>
1.49227070,21.89609039,13.93706509,-1.31404753,0.23889809,-0.71954816

>  <FORMUL>
      HMD    C11 H10 Br1 N5 O2

>  <HET>
 HMD  A 400      19

>  <HETNAM>
     HMD 4-(5-AMINO-4-OXO-4H-PYRAZOL-3-YL)-2-BROMO-4,5,6,7-TETRA
   2 HMD HYDRO-3AH-PYRROLO[2,3-C]AZEPIN-8-ONE

>  <HETSYN>
     HMD HYMENIALDISINE

>  <Name>
HMD.pdb

>  <RI>
3.58785e+07

>  <Rbt.Current_Directory>
/home/malgorzata/Desktop/rDOCK_IFD/Wyniki/2b_CDK2/IFD

>  <Rbt.Executable>
rbdock ($Id: //depot/dev/client3/rdock/2013.1/src/exe/rbdock.cxx#4 $)

>  <Rbt.Library>
libRbt.so (2013.1, Build901 2013/11/27)

>  <Rbt.Parameter_File>
/home/malgorzata/Desktop/rDock_2013.1_src/data/scripts/dock.prm

>  <Rbt.Receptor>
cavity.prm

>  <SCORE>
-18.6572

>  <SCORE.INTER>
-10.8547

>  <SCORE.INTER.CONST>
1

>  <SCORE.INTER.POLAR>
-0.962257

>  <SCORE.INTER.REPUL>
0

>  <SCORE.INTER.ROT>
0

>  <SCORE.INTER.VDW>
-12.9831

>  <SCORE.INTER.norm>
-0.571302

>  <SCORE.INTRA>
0

>  <SCORE.INTRA.DIHEDRAL>
0

>  <SCORE.INTRA.DIHEDRAL.0>
0

>  <SCORE.INTRA.POLAR>
0

>  <SCORE.INTRA.POLAR.0>
0

>  <SCORE.INTRA.REPUL>
0

>  <SCORE.INTRA.REPUL.0>
0

>  <SCORE.INTRA.VDW>
0

>  <SCORE.INTRA.VDW.0>
0

>  <SCORE.INTRA.norm>
0

>  <SCORE.RESTR>
0

>  <SCORE.RESTR.CAVITY>
0

>  <SCORE.RESTR.norm>
0

>  <SCORE.SYSTEM>
-7.80246

>  <SCORE.SYSTEM.CONST>
0

>  <SCORE.SYSTEM.DIHEDRAL>
2.25471

>  <SCORE.SYSTEM.POLAR>
-0.275005

>  <SCORE.SYSTEM.REPUL>
0.0693572

>  <SCORE.SYSTEM.VDW>
-8.34159

>  <SCORE.SYSTEM.norm>
-0.410656

>  <SCORE.heavy>
19

>  <SCORE.norm>
-0.981958

$$$$
