HMD.pdb
  rDOCK(R)          3D
libRbt.so/2013.1/901 2013/11/27
 24 26  0  0  0  0  0  0  0  0999 V2000
    4.8426   28.0967    5.2970 Br  0  0  0  0  0  0
   -0.1766   27.6400    7.1067 O   0  0  0  0  0  0
    2.6080   21.6928   10.3634 O   0  0  0  0  0  0
    2.4761   27.4757    6.5978 N   0  0  0  0  0  0
   -0.0612   26.2336    8.9103 N   0  0  0  0  0  0
    4.8480   21.6842    9.8409 N   0  0  0  0  0  0
    4.9168   23.4688    8.4799 N   0  0  0  0  0  0
    6.9024   22.3281    8.8832 N   0  0  0  0  0  0
    3.7148   27.0556    6.3321 C   0  0  0  0  0  0
    3.9617   25.8470    6.9142 C   0  0  0  0  0  0
    2.7765   25.4916    7.6124 C   0  0  0  0  0  0
    1.8576   26.5598    7.3740 C   0  0  0  0  0  0
    0.4773   26.8423    7.7915 C   0  0  0  0  0  0
    0.5767   25.2692    9.8227 C   0  0  0  0  0  0
    1.1398   24.0501    9.1147 C   0  0  0  0  0  0
    2.5372   24.2817    8.5468 C   0  0  0  0  0  0
    3.5759   23.4086    8.8880 C   0  0  0  0  0  0
    3.5881   22.1774    9.7767 C   0  0  0  0  0  0
    5.6053   22.4763    9.0730 C   0  0  0  0  0  0
    2.0776   28.3177    6.2793 H   0  0  0  0  0  0
   -0.9909   26.4761    9.1247 H   0  0  0  0  0  0
    5.2943   24.1321    7.8580 H   0  0  0  0  0  0
    7.3842   21.5939    9.3283 H   0  0  0  0  0  0
    7.3884   22.9515    8.2964 H   0  0  0  0  0  0
  1  9  1  0  0  0
  2 13  2  0  0  0
  3 18  2  0  0  0
  4  9  1  0  0  0
  4 12  1  0  0  0
  4 20  1  0  0  0
  5 13  1  0  0  0
  5 14  1  0  0  0
  5 21  1  0  0  0
  6 18  1  0  0  0
  6 19  2  0  0  0
  7 17  1  0  0  0
  7 19  1  0  0  0
  7 22  1  0  0  0
  8 19  1  0  0  0
  8 23  1  0  0  0
  8 24  1  0  0  0
  9 10  2  0  0  0
 10 11  1  0  0  0
 11 12  2  0  0  0
 11 16  1  0  0  0
 12 13  1  0  0  0
 14 15  1  0  0  0
 15 16  1  0  0  0
 16 17  2  0  0  0
 17 18  1  0  0  0
M  END
>  <CHROM.0>
-178.76347115,127.95940028,179.72514682,76.18974001,-102.93005978,-120.06760162
159.91269493,-135.30011573,70.51152600,-179.22203301,-91.40889218

>  <CHROM.1>
3.33179505,25.50237294,7.66137065,-1.58366654,-0.30003429,2.52478973

>  <FORMUL>
      HMD    C11 H10 Br1 N5 O2

>  <HET>
 HMD  A 400      19

>  <HETNAM>
     HMD 4-(5-AMINO-4-OXO-4H-PYRAZOL-3-YL)-2-BROMO-4,5,6,7-TETRA
   2 HMD HYDRO-3AH-PYRROLO[2,3-C]AZEPIN-8-ONE

>  <HETSYN>
     HMD HYMENIALDISINE

>  <Name>
HMD.pdb

>  <RI>
0

>  <Rbt.Current_Directory>
/home/malgorzata/Desktop/rDOCK_IFD/Wyniki/2_CDK2/IFD

>  <Rbt.Executable>
rbdock ($Id: //depot/dev/client3/rdock/2013.1/src/exe/rbdock.cxx#4 $)

>  <Rbt.Library>
libRbt.so (2013.1, Build901 2013/11/27)

>  <Rbt.Parameter_File>
/home/malgorzata/Desktop/rDock_2013.1_src/data/scripts/dock.prm

>  <Rbt.Receptor>
cavity.prm

>  <SCORE>
-57.1172

>  <SCORE.INTER>
-10.012

>  <SCORE.INTER.CONST>
1

>  <SCORE.INTER.POLAR>
-0.216486

>  <SCORE.INTER.REPUL>
0

>  <SCORE.INTER.ROT>
0

>  <SCORE.INTER.VDW>
-14.676

>  <SCORE.INTER.norm>
-0.526949

>  <SCORE.INTRA>
0

>  <SCORE.INTRA.DIHEDRAL>
0

>  <SCORE.INTRA.DIHEDRAL.0>
0

>  <SCORE.INTRA.POLAR>
0

>  <SCORE.INTRA.POLAR.0>
0

>  <SCORE.INTRA.REPUL>
0

>  <SCORE.INTRA.REPUL.0>
0

>  <SCORE.INTRA.VDW>
0

>  <SCORE.INTRA.VDW.0>
0

>  <SCORE.INTRA.norm>
0

>  <SCORE.RESTR>
0

>  <SCORE.RESTR.CAVITY>
0

>  <SCORE.RESTR.norm>
0

>  <SCORE.SYSTEM>
-47.1051

>  <SCORE.SYSTEM.CONST>
0

>  <SCORE.SYSTEM.DIHEDRAL>
7.94403

>  <SCORE.SYSTEM.POLAR>
-6.12869

>  <SCORE.SYSTEM.REPUL>
0.0821062

>  <SCORE.SYSTEM.VDW>
-30.6501

>  <SCORE.SYSTEM.norm>
-2.47922

>  <SCORE.heavy>
19

>  <SCORE.norm>
-3.00617

$$$$
HMD.pdb
  rDOCK(R)          3D
libRbt.so/2013.1/901 2013/11/27
 24 26  0  0  0  0  0  0  0  0999 V2000
    0.6685   24.8587    7.1522 Br  0  0  0  0  0  0
    3.3570   20.6072    8.9888 O   0  0  0  0  0  0
   -0.9506   21.6664   14.8242 O   0  0  0  0  0  0
    1.6437   22.6448    8.5035 N   0  0  0  0  0  0
    2.0935   19.7664   10.7037 N   0  0  0  0  0  0
   -2.3360   23.4168   14.2698 N   0  0  0  0  0  0
   -1.4921   23.9319   12.2538 N   0  0  0  0  0  0
   -3.2910   25.1813   13.0343 N   0  0  0  0  0  0
    0.8569   23.7188    8.5987 C   0  0  0  0  0  0
    0.2775   23.7986    9.8310 C   0  0  0  0  0  0
    0.7354   22.6686   10.5604 C   0  0  0  0  0  0
    1.6087   21.9684    9.6719 C   0  0  0  0  0  0
    2.4051   20.7374    9.7696 C   0  0  0  0  0  0
    1.0057   19.7687   11.6969 C   0  0  0  0  0  0
    1.0096   20.9937   12.5934 C   0  0  0  0  0  0
    0.3036   22.1936   11.9683 C   0  0  0  0  0  0
   -0.7247   22.8332   12.6689 C   0  0  0  0  0  0
   -1.3206   22.5512   14.0369 C   0  0  0  0  0  0
   -2.4146   24.2083   13.1938 C   0  0  0  0  0  0
    2.1656   22.3873    7.7095 H   0  0  0  0  0  0
    2.6735   18.9710   10.7050 H   0  0  0  0  0  0
   -1.3743   24.4229   11.4087 H   0  0  0  0  0  0
   -3.9564   25.3644   13.7364 H   0  0  0  0  0  0
   -3.2797   25.7243   12.2132 H   0  0  0  0  0  0
  1  9  1  0  0  0
  2 13  2  0  0  0
  3 18  2  0  0  0
  4  9  1  0  0  0
  4 12  1  0  0  0
  4 20  1  0  0  0
  5 13  1  0  0  0
  5 14  1  0  0  0
  5 21  1  0  0  0
  6 18  1  0  0  0
  6 19  2  0  0  0
  7 17  1  0  0  0
  7 19  1  0  0  0
  7 22  1  0  0  0
  8 19  1  0  0  0
  8 23  1  0  0  0
  8 24  1  0  0  0
  9 10  2  0  0  0
 10 11  1  0  0  0
 11 12  2  0  0  0
 11 16  1  0  0  0
 12 13  1  0  0  0
 14 15  1  0  0  0
 15 16  1  0  0  0
 16 17  2  0  0  0
 17 18  1  0  0  0
M  END
>  <CHROM.0>
179.42984240,-73.26918826,-179.17365527,-140.02987546,142.21727459,119.89756263
-118.27449101,176.73272617,38.61928227,84.99530647,-89.58313717

>  <CHROM.1>
0.27778212,22.96730353,10.44971413,0.97681293,0.80134413,-0.92942968

>  <FORMUL>
      HMD    C11 H10 Br1 N5 O2

>  <HET>
 HMD  A 400      19

>  <HETNAM>
     HMD 4-(5-AMINO-4-OXO-4H-PYRAZOL-3-YL)-2-BROMO-4,5,6,7-TETRA
   2 HMD HYDRO-3AH-PYRROLO[2,3-C]AZEPIN-8-ONE

>  <HETSYN>
     HMD HYMENIALDISINE

>  <Name>
HMD.pdb

>  <RI>
0

>  <Rbt.Current_Directory>
/home/malgorzata/Desktop/rDOCK_IFD/Wyniki/2_CDK2/IFD

>  <Rbt.Executable>
rbdock ($Id: //depot/dev/client3/rdock/2013.1/src/exe/rbdock.cxx#4 $)

>  <Rbt.Library>
libRbt.so (2013.1, Build901 2013/11/27)

>  <Rbt.Parameter_File>
/home/malgorzata/Desktop/rDock_2013.1_src/data/scripts/dock.prm

>  <Rbt.Receptor>
cavity.prm

>  <SCORE>
-61.762

>  <SCORE.INTER>
-10.8029

>  <SCORE.INTER.CONST>
1

>  <SCORE.INTER.POLAR>
-1.74085

>  <SCORE.INTER.REPUL>
0.109285

>  <SCORE.INTER.ROT>
0

>  <SCORE.INTER.VDW>
-10.8304

>  <SCORE.INTER.norm>
-0.568572

>  <SCORE.INTRA>
0

>  <SCORE.INTRA.DIHEDRAL>
0

>  <SCORE.INTRA.DIHEDRAL.0>
0

>  <SCORE.INTRA.POLAR>
0

>  <SCORE.INTRA.POLAR.0>
0

>  <SCORE.INTRA.REPUL>
0

>  <SCORE.INTRA.REPUL.0>
0

>  <SCORE.INTRA.VDW>
0

>  <SCORE.INTRA.VDW.0>
0

>  <SCORE.INTRA.norm>
0

>  <SCORE.RESTR>
0

>  <SCORE.RESTR.CAVITY>
0

>  <SCORE.RESTR.norm>
0

>  <SCORE.SYSTEM>
-50.9592

>  <SCORE.SYSTEM.CONST>
0

>  <SCORE.SYSTEM.DIHEDRAL>
10.4327

>  <SCORE.SYSTEM.POLAR>
-7.0761

>  <SCORE.SYSTEM.REPUL>
0.0999865

>  <SCORE.SYSTEM.VDW>
-32.6167

>  <SCORE.SYSTEM.norm>
-2.68206

>  <SCORE.heavy>
19

>  <SCORE.norm>
-3.25063

$$$$
HMD.pdb
  rDOCK(R)          3D
libRbt.so/2013.1/901 2013/11/27
 24 26  0  0  0  0  0  0  0  0999 V2000
    2.9944   29.3145    6.4846 Br  0  0  0  0  0  0
    0.5928   25.1943    8.9202 O   0  0  0  0  0  0
    6.6518   21.6841    6.7529 O   0  0  0  0  0  0
    2.2711   26.9327    7.7019 N   0  0  0  0  0  0
    2.2431   23.6548    9.3091 N   0  0  0  0  0  0
    7.9677   23.2749    5.7388 N   0  0  0  0  0  0
    6.5776   25.0343    5.8567 N   0  0  0  0  0  0
    8.6597   25.3539    4.8723 N   0  0  0  0  0  0
    3.1605   27.5172    6.8964 C   0  0  0  0  0  0
    4.1138   26.6313    6.4880 C   0  0  0  0  0  0
    3.7949   25.3911    7.1036 C   0  0  0  0  0  0
    2.6082   25.6347    7.8617 C   0  0  0  0  0  0
    1.7550   24.8120    8.7303 C   0  0  0  0  0  0
    3.5875   23.0664    9.1836 C   0  0  0  0  0  0
    4.0113   22.8309    7.7451 C   0  0  0  0  0  0
    4.6049   24.0729    7.0863 C   0  0  0  0  0  0
    5.8694   24.0030    6.4917 C   0  0  0  0  0  0
    6.8420   22.8446    6.3572 C   0  0  0  0  0  0
    7.7800   24.5718    5.4680 C   0  0  0  0  0  0
    1.4944   27.3762    8.1132 H   0  0  0  0  0  0
    1.6102   23.1604    9.8786 H   0  0  0  0  0  0
    6.2470   25.9511    5.7175 H   0  0  0  0  0  0
    9.5330   24.9923    4.5971 H   0  0  0  0  0  0
    8.4427   26.2991    4.7029 H   0  0  0  0  0  0
  1  9  1  0  0  0
  2 13  2  0  0  0
  3 18  2  0  0  0
  4  9  1  0  0  0
  4 12  1  0  0  0
  4 20  1  0  0  0
  5 13  1  0  0  0
  5 14  1  0  0  0
  5 21  1  0  0  0
  6 18  1  0  0  0
  6 19  2  0  0  0
  7 17  1  0  0  0
  7 19  1  0  0  0
  7 22  1  0  0  0
  8 19  1  0  0  0
  8 23  1  0  0  0
  8 24  1  0  0  0
  9 10  2  0  0  0
 10 11  1  0  0  0
 11 12  2  0  0  0
 11 16  1  0  0  0
 12 13  1  0  0  0
 14 15  1  0  0  0
 15 16  1  0  0  0
 16 17  2  0  0  0
 17 18  1  0  0  0
M  END
>  <CHROM.0>
179.54828021,-93.01510121,-179.20922967,76.66934593,-100.20700323,5.43835384
-120.37184786,129.21228197,-174.25302916,-179.07848340,87.21360726

>  <CHROM.1>
4.22197906,25.73099906,6.98959851,-2.38704702,-0.49770196,2.80418822

>  <FORMUL>
      HMD    C11 H10 Br1 N5 O2

>  <HET>
 HMD  A 400      19

>  <HETNAM>
     HMD 4-(5-AMINO-4-OXO-4H-PYRAZOL-3-YL)-2-BROMO-4,5,6,7-TETRA
   2 HMD HYDRO-3AH-PYRROLO[2,3-C]AZEPIN-8-ONE

>  <HETSYN>
     HMD HYMENIALDISINE

>  <Name>
HMD.pdb

>  <RI>
0

>  <Rbt.Current_Directory>
/home/malgorzata/Desktop/rDOCK_IFD/Wyniki/2_CDK2/IFD

>  <Rbt.Executable>
rbdock ($Id: //depot/dev/client3/rdock/2013.1/src/exe/rbdock.cxx#4 $)

>  <Rbt.Library>
libRbt.so (2013.1, Build901 2013/11/27)

>  <Rbt.Parameter_File>
/home/malgorzata/Desktop/rDock_2013.1_src/data/scripts/dock.prm

>  <Rbt.Receptor>
cavity.prm

>  <SCORE>
-60.3714

>  <SCORE.INTER>
-12.8753

>  <SCORE.INTER.CONST>
1

>  <SCORE.INTER.POLAR>
-1.28127

>  <SCORE.INTER.REPUL>
0

>  <SCORE.INTER.ROT>
0

>  <SCORE.INTER.VDW>
-13.919

>  <SCORE.INTER.norm>
-0.677648

>  <SCORE.INTRA>
0

>  <SCORE.INTRA.DIHEDRAL>
0

>  <SCORE.INTRA.DIHEDRAL.0>
0

>  <SCORE.INTRA.POLAR>
0

>  <SCORE.INTRA.POLAR.0>
0

>  <SCORE.INTRA.REPUL>
0

>  <SCORE.INTRA.REPUL.0>
0

>  <SCORE.INTRA.VDW>
0

>  <SCORE.INTRA.VDW.0>
0

>  <SCORE.INTRA.norm>
0

>  <SCORE.RESTR>
0

>  <SCORE.RESTR.CAVITY>
0

>  <SCORE.RESTR.norm>
0

>  <SCORE.SYSTEM>
-47.4961

>  <SCORE.SYSTEM.CONST>
0

>  <SCORE.SYSTEM.DIHEDRAL>
7.47144

>  <SCORE.SYSTEM.POLAR>
-6.1342

>  <SCORE.SYSTEM.REPUL>
0.104325

>  <SCORE.SYSTEM.VDW>
-30.8972

>  <SCORE.SYSTEM.norm>
-2.4998

>  <SCORE.heavy>
19

>  <SCORE.norm>
-3.17744

$$$$
HMD.pdb
  rDOCK(R)          3D
libRbt.so/2013.1/901 2013/11/27
 24 26  0  0  0  0  0  0  0  0999 V2000
    3.1301   25.0481    9.0718 Br  0  0  0  0  0  0
   -1.2438   22.2426   10.3658 O   0  0  0  0  0  0
    3.7136   17.9184   13.5992 O   0  0  0  0  0  0
    1.2224   23.3263   10.1083 N   0  0  0  0  0  0
   -0.6218   20.8895   12.1057 N   0  0  0  0  0  0
    5.7431   18.9572   13.2955 N   0  0  0  0  0  0
    5.0848   20.6919   12.0309 N   0  0  0  0  0  0
    7.3406   20.5306   12.5711 N   0  0  0  0  0  0
    2.5314   23.5290    9.9443 C   0  0  0  0  0  0
    3.2605   22.5143   10.4913 C   0  0  0  0  0  0
    2.3221   21.6085   11.0549 C   0  0  0  0  0  0
    1.0367   22.1685   10.7783 C   0  0  0  0  0  0
   -0.3457   21.7671   11.0732 C   0  0  0  0  0  0
    0.3226   20.2392   13.0300 C   0  0  0  0  0  0
    1.4219   19.4658   12.3244 C   0  0  0  0  0  0
    2.5965   20.3452   11.9052 C   0  0  0  0  0  0
    3.8932   20.0038   12.3045 C   0  0  0  0  0  0
    4.4038   18.8379   13.1328 C   0  0  0  0  0  0
    6.1078   20.0662   12.6415 C   0  0  0  0  0  0
    0.5074   23.9245    9.7919 H   0  0  0  0  0  0
   -1.5723   20.6713   12.2402 H   0  0  0  0  0  0
    5.1605   21.5040   11.4795 H   0  0  0  0  0  0
    8.0725   20.0550   13.0263 H   0  0  0  0  0  0
    7.5285   21.3528   12.0632 H   0  0  0  0  0  0
  1  9  1  0  0  0
  2 13  2  0  0  0
  3 18  2  0  0  0
  4  9  1  0  0  0
  4 12  1  0  0  0
  4 20  1  0  0  0
  5 13  1  0  0  0
  5 14  1  0  0  0
  5 21  1  0  0  0
  6 18  1  0  0  0
  6 19  2  0  0  0
  7 17  1  0  0  0
  7 19  1  0  0  0
  7 22  1  0  0  0
  8 19  1  0  0  0
  8 23  1  0  0  0
  8 24  1  0  0  0
  9 10  2  0  0  0
 10 11  1  0  0  0
 11 12  2  0  0  0
 11 16  1  0  0  0
 12 13  1  0  0  0
 14 15  1  0  0  0
 15 16  1  0  0  0
 16 17  2  0  0  0
 17 18  1  0  0  0
M  END
>  <CHROM.0>
179.60401887,100.94559657,-179.23302638,-141.71133353,112.32429173,-112.73239598
-71.03687953,-168.98983559,-48.53452639,83.59806176,-144.72815466

>  <CHROM.1>
2.80771526,21.86240133,11.15762244,-1.92211202,0.03850247,2.54875053

>  <FORMUL>
      HMD    C11 H10 Br1 N5 O2

>  <HET>
 HMD  A 400      19

>  <HETNAM>
     HMD 4-(5-AMINO-4-OXO-4H-PYRAZOL-3-YL)-2-BROMO-4,5,6,7-TETRA
   2 HMD HYDRO-3AH-PYRROLO[2,3-C]AZEPIN-8-ONE

>  <HETSYN>
     HMD HYMENIALDISINE

>  <Name>
HMD.pdb

>  <RI>
0

>  <Rbt.Current_Directory>
/home/malgorzata/Desktop/rDOCK_IFD/Wyniki/2_CDK2/IFD

>  <Rbt.Executable>
rbdock ($Id: //depot/dev/client3/rdock/2013.1/src/exe/rbdock.cxx#4 $)

>  <Rbt.Library>
libRbt.so (2013.1, Build901 2013/11/27)

>  <Rbt.Parameter_File>
/home/malgorzata/Desktop/rDock_2013.1_src/data/scripts/dock.prm

>  <Rbt.Receptor>
cavity.prm

>  <SCORE>
-60.4437

>  <SCORE.INTER>
-9.55641

>  <SCORE.INTER.CONST>
1

>  <SCORE.INTER.POLAR>
-1.08996

>  <SCORE.INTER.REPUL>
0

>  <SCORE.INTER.ROT>
0

>  <SCORE.INTER.VDW>
-11.2505

>  <SCORE.INTER.norm>
-0.502969

>  <SCORE.INTRA>
0

>  <SCORE.INTRA.DIHEDRAL>
0

>  <SCORE.INTRA.DIHEDRAL.0>
0

>  <SCORE.INTRA.POLAR>
0

>  <SCORE.INTRA.POLAR.0>
0

>  <SCORE.INTRA.REPUL>
0

>  <SCORE.INTRA.REPUL.0>
0

>  <SCORE.INTRA.VDW>
0

>  <SCORE.INTRA.VDW.0>
0

>  <SCORE.INTRA.norm>
0

>  <SCORE.RESTR>
0

>  <SCORE.RESTR.CAVITY>
0

>  <SCORE.RESTR.norm>
0

>  <SCORE.SYSTEM>
-50.8873

>  <SCORE.SYSTEM.CONST>
0

>  <SCORE.SYSTEM.DIHEDRAL>
10.5761

>  <SCORE.SYSTEM.POLAR>
-7.27897

>  <SCORE.SYSTEM.REPUL>
0.0862823

>  <SCORE.SYSTEM.VDW>
-31.8583

>  <SCORE.SYSTEM.norm>
-2.67828

>  <SCORE.heavy>
19

>  <SCORE.norm>
-3.18125

$$$$
HMD.pdb
  rDOCK(R)          3D
libRbt.so/2013.1/901 2013/11/27
 24 26  0  0  0  0  0  0  0  0999 V2000
    5.2179   19.7759   13.6813 Br  0  0  0  0  0  0
    4.1010   20.7626    8.5379 O   0  0  0  0  0  0
   -1.9183   23.7534   11.4622 O   0  0  0  0  0  0
    4.2368   20.6386   11.2377 N   0  0  0  0  0  0
    2.5057   22.4055    8.5526 N   0  0  0  0  0  0
   -1.6639   23.5712   13.7409 N   0  0  0  0  0  0
    0.2691   22.4305   13.8068 N   0  0  0  0  0  0
   -0.7291   23.0019   15.8276 N   0  0  0  0  0  0
    3.9640   20.5169   12.5385 C   0  0  0  0  0  0
    2.7217   20.9990   12.8296 C   0  0  0  0  0  0
    2.1809   21.4724   11.6040 C   0  0  0  0  0  0
    3.1832   21.2138   10.6188 C   0  0  0  0  0  0
    3.2892   21.4492    9.1722 C   0  0  0  0  0  0
    1.5005   23.2960    9.1576 C   0  0  0  0  0  0
    0.4299   22.5554    9.9384 C   0  0  0  0  0  0
    0.8517   22.2286   11.3681 C   0  0  0  0  0  0
    0.0408   22.6265   12.4365 C   0  0  0  0  0  0
   -1.2815   23.3729   12.4568 C   0  0  0  0  0  0
   -0.7213   23.0117   14.5085 C   0  0  0  0  0  0
    5.0716   20.3547   10.7998 H   0  0  0  0  0  0
    2.6367   22.5038    7.5819 H   0  0  0  0  0  0
    1.0329   21.9447   14.1938 H   0  0  0  0  0  0
   -1.4649   23.4340   16.3187 H   0  0  0  0  0  0
    0.0009   22.5626   16.3209 H   0  0  0  0  0  0
  1  9  1  0  0  0
  2 13  2  0  0  0
  3 18  2  0  0  0
  4  9  1  0  0  0
  4 12  1  0  0  0
  4 20  1  0  0  0
  5 13  1  0  0  0
  5 14  1  0  0  0
  5 21  1  0  0  0
  6 18  1  0  0  0
  6 19  2  0  0  0
  7 17  1  0  0  0
  7 19  1  0  0  0
  7 22  1  0  0  0
  8 19  1  0  0  0
  8 23  1  0  0  0
  8 24  1  0  0  0
  9 10  2  0  0  0
 10 11  1  0  0  0
 11 12  2  0  0  0
 11 16  1  0  0  0
 12 13  1  0  0  0
 14 15  1  0  0  0
 15 16  1  0  0  0
 16 17  2  0  0  0
 17 18  1  0  0  0
M  END
>  <CHROM.0>
179.58339099,-86.41265083,-179.22708072,-143.72195274,-96.11711904,123.34671149
77.26043416,-122.48531374,-169.22718739,-56.86108839,-91.37719902

>  <CHROM.1>
2.23547381,21.60409258,12.14309064,0.04955416,-0.50068881,1.71447214

>  <FORMUL>
      HMD    C11 H10 Br1 N5 O2

>  <HET>
 HMD  A 400      19

>  <HETNAM>
     HMD 4-(5-AMINO-4-OXO-4H-PYRAZOL-3-YL)-2-BROMO-4,5,6,7-TETRA
   2 HMD HYDRO-3AH-PYRROLO[2,3-C]AZEPIN-8-ONE

>  <HETSYN>
     HMD HYMENIALDISINE

>  <Name>
HMD.pdb

>  <RI>
0

>  <Rbt.Current_Directory>
/home/malgorzata/Desktop/rDOCK_IFD/Wyniki/2_CDK2/IFD

>  <Rbt.Executable>
rbdock ($Id: //depot/dev/client3/rdock/2013.1/src/exe/rbdock.cxx#4 $)

>  <Rbt.Library>
libRbt.so (2013.1, Build901 2013/11/27)

>  <Rbt.Parameter_File>
/home/malgorzata/Desktop/rDock_2013.1_src/data/scripts/dock.prm

>  <Rbt.Receptor>
cavity.prm

>  <SCORE>
-61.1611

>  <SCORE.INTER>
-11.1508

>  <SCORE.INTER.CONST>
1

>  <SCORE.INTER.POLAR>
-1.25082

>  <SCORE.INTER.REPUL>
0.0769733

>  <SCORE.INTER.ROT>
0

>  <SCORE.INTER.VDW>
-12.6829

>  <SCORE.INTER.norm>
-0.586885

>  <SCORE.INTRA>
0

>  <SCORE.INTRA.DIHEDRAL>
0

>  <SCORE.INTRA.DIHEDRAL.0>
0

>  <SCORE.INTRA.POLAR>
0

>  <SCORE.INTRA.POLAR.0>
0

>  <SCORE.INTRA.REPUL>
0

>  <SCORE.INTRA.REPUL.0>
0

>  <SCORE.INTRA.VDW>
0

>  <SCORE.INTRA.VDW.0>
0

>  <SCORE.INTRA.norm>
0

>  <SCORE.RESTR>
0

>  <SCORE.RESTR.CAVITY>
0

>  <SCORE.RESTR.norm>
0

>  <SCORE.SYSTEM>
-50.0103

>  <SCORE.SYSTEM.CONST>
0

>  <SCORE.SYSTEM.DIHEDRAL>
7.95791

>  <SCORE.SYSTEM.POLAR>
-6.70755

>  <SCORE.SYSTEM.REPUL>
0.133097

>  <SCORE.SYSTEM.VDW>
-31.8491

>  <SCORE.SYSTEM.norm>
-2.63212

>  <SCORE.heavy>
19

>  <SCORE.norm>
-3.21901

$$$$
HMD.pdb
  rDOCK(R)          3D
libRbt.so/2013.1/901 2013/11/27
 24 26  0  0  0  0  0  0  0  0999 V2000
   -0.6929   22.7293   15.3715 Br  0  0  0  0  0  0
    2.7382   21.0577   11.6152 O   0  0  0  0  0  0
    0.7687   27.3634    8.4390 O   0  0  0  0  0  0
    1.0426   22.4078   13.2354 N   0  0  0  0  0  0
    3.2743   22.9177   10.3914 N   0  0  0  0  0  0
   -0.6642   28.3882    9.9179 N   0  0  0  0  0  0
   -0.7749   26.7910   11.4922 N   0  0  0  0  0  0
   -1.9936   28.7420   11.8309 N   0  0  0  0  0  0
    0.0562   23.1566   13.7333 C   0  0  0  0  0  0
   -0.2520   24.1878   12.8954 C   0  0  0  0  0  0
    0.6284   24.0763   11.7859 C   0  0  0  0  0  0
    1.4291   22.9220   12.0478 C   0  0  0  0  0  0
    2.5217   22.2444   11.3363 C   0  0  0  0  0  0
    3.1452   24.3160    9.9469 C   0  0  0  0  0  0
    1.7508   24.6688    9.4616 C   0  0  0  0  0  0
    0.8023   25.0488   10.5950 C   0  0  0  0  0  0
    0.1187   26.2685   10.5452 C   0  0  0  0  0  0
    0.1306   27.3730    9.5031 C   0  0  0  0  0  0
   -1.1727   28.0146   11.0979 C   0  0  0  0  0  0
    1.4265   21.6094   13.6646 H   0  0  0  0  0  0
    3.9884   22.3950    9.9603 H   0  0  0  0  0  0
   -1.0650   26.3347   12.3149 H   0  0  0  0  0  0
   -2.2704   29.6346   11.5211 H   0  0  0  0  0  0
   -2.3294   28.3923   12.6877 H   0  0  0  0  0  0
  1  9  1  0  0  0
  2 13  2  0  0  0
  3 18  2  0  0  0
  4  9  1  0  0  0
  4 12  1  0  0  0
  4 20  1  0  0  0
  5 13  1  0  0  0
  5 14  1  0  0  0
  5 21  1  0  0  0
  6 18  1  0  0  0
  6 19  2  0  0  0
  7 17  1  0  0  0
  7 19  1  0  0  0
  7 22  1  0  0  0
  8 19  1  0  0  0
  8 23  1  0  0  0
  8 24  1  0  0  0
  9 10  2  0  0  0
 10 11  1  0  0  0
 11 12  2  0  0  0
 11 16  1  0  0  0
 12 13  1  0  0  0
 14 15  1  0  0  0
 15 16  1  0  0  0
 16 17  2  0  0  0
 17 18  1  0  0  0
M  END
>  <CHROM.0>
179.70243251,135.90862753,-179.27725144,75.40256847,118.03875116,3.76404541
-176.69969467,-120.02799892,73.17617078,176.13702404,153.90513603

>  <CHROM.1>
0.40875940,24.44655688,12.14025769,1.56393131,-0.78244249,2.37845282

>  <FORMUL>
      HMD    C11 H10 Br1 N5 O2

>  <HET>
 HMD  A 400      19

>  <HETNAM>
     HMD 4-(5-AMINO-4-OXO-4H-PYRAZOL-3-YL)-2-BROMO-4,5,6,7-TETRA
   2 HMD HYDRO-3AH-PYRROLO[2,3-C]AZEPIN-8-ONE

>  <HETSYN>
     HMD HYMENIALDISINE

>  <Name>
HMD.pdb

>  <RI>
0

>  <Rbt.Current_Directory>
/home/malgorzata/Desktop/rDOCK_IFD/Wyniki/2_CDK2/IFD

>  <Rbt.Executable>
rbdock ($Id: //depot/dev/client3/rdock/2013.1/src/exe/rbdock.cxx#4 $)

>  <Rbt.Library>
libRbt.so (2013.1, Build901 2013/11/27)

>  <Rbt.Parameter_File>
/home/malgorzata/Desktop/rDock_2013.1_src/data/scripts/dock.prm

>  <Rbt.Receptor>
cavity.prm

>  <SCORE>
-55.2291

>  <SCORE.INTER>
-7.70042

>  <SCORE.INTER.CONST>
1

>  <SCORE.INTER.POLAR>
0

>  <SCORE.INTER.REPUL>
0.0281496

>  <SCORE.INTER.ROT>
0

>  <SCORE.INTER.VDW>
-13.2412

>  <SCORE.INTER.norm>
-0.405285

>  <SCORE.INTRA>
0

>  <SCORE.INTRA.DIHEDRAL>
0

>  <SCORE.INTRA.DIHEDRAL.0>
0

>  <SCORE.INTRA.POLAR>
0

>  <SCORE.INTRA.POLAR.0>
0

>  <SCORE.INTRA.REPUL>
0

>  <SCORE.INTRA.REPUL.0>
0

>  <SCORE.INTRA.VDW>
0

>  <SCORE.INTRA.VDW.0>
0

>  <SCORE.INTRA.norm>
0

>  <SCORE.RESTR>
0

>  <SCORE.RESTR.CAVITY>
0

>  <SCORE.RESTR.norm>
0

>  <SCORE.SYSTEM>
-47.5287

>  <SCORE.SYSTEM.CONST>
0

>  <SCORE.SYSTEM.DIHEDRAL>
7.48494

>  <SCORE.SYSTEM.POLAR>
-5.98684

>  <SCORE.SYSTEM.REPUL>
0.0828953

>  <SCORE.SYSTEM.VDW>
-31.3303

>  <SCORE.SYSTEM.norm>
-2.50151

>  <SCORE.heavy>
19

>  <SCORE.norm>
-2.90679

$$$$
HMD.pdb
  rDOCK(R)          3D
libRbt.so/2013.1/901 2013/11/27
 24 26  0  0  0  0  0  0  0  0999 V2000
    2.4550   24.8080   11.1880 Br  0  0  0  0  0  0
    3.8336   27.1230    6.5602 O   0  0  0  0  0  0
   -2.7289   30.2914    7.3500 O   0  0  0  0  0  0
    2.7252   26.3587    8.9075 N   0  0  0  0  0  0
    2.4740   28.9541    6.3522 N   0  0  0  0  0  0
   -3.5432   29.5492    9.3691 N   0  0  0  0  0  0
   -1.8989   28.1268    9.9303 N   0  0  0  0  0  0
   -3.6806   28.3700   11.4044 N   0  0  0  0  0  0
    1.8874   25.9858    9.8773 C   0  0  0  0  0  0
    0.6691   26.5821    9.7337 C   0  0  0  0  0  0
    0.7628   27.4068    8.5805 C   0  0  0  0  0  0
    2.0914   27.2240    8.0868 C   0  0  0  0  0  0
    2.8514   27.7667    6.9524 C   0  0  0  0  0  0
    1.3413   29.8314    6.6936 C   0  0  0  0  0  0
    0.0036   29.1138    6.7035 C   0  0  0  0  0  0
   -0.2826   28.4019    8.0226 C   0  0  0  0  0  0
   -1.4727   28.6682    8.7082 C   0  0  0  0  0  0
   -2.6285   29.5936    8.3711 C   0  0  0  0  0  0
   -3.0750   28.6826   10.2749 C   0  0  0  0  0  0
    3.6553   26.0523    8.8067 H   0  0  0  0  0  0
    3.0349   29.2513    5.5998 H   0  0  0  0  0  0
   -1.4143   27.4477   10.4530 H   0  0  0  0  0  0
   -4.5407   28.7902   11.6346 H   0  0  0  0  0  0
   -3.2724   27.7164   12.0172 H   0  0  0  0  0  0
  1  9  1  0  0  0
  2 13  2  0  0  0
  3 18  2  0  0  0
  4  9  1  0  0  0
  4 12  1  0  0  0
  4 20  1  0  0  0
  5 13  1  0  0  0
  5 14  1  0  0  0
  5 21  1  0  0  0
  6 18  1  0  0  0
  6 19  2  0  0  0
  7 17  1  0  0  0
  7 19  1  0  0  0
  7 22  1  0  0  0
  8 19  1  0  0  0
  8 23  1  0  0  0
  8 24  1  0  0  0
  9 10  2  0  0  0
 10 11  1  0  0  0
 11 12  2  0  0  0
 11 16  1  0  0  0
 12 13  1  0  0  0
 14 15  1  0  0  0
 15 16  1  0  0  0
 16 17  2  0  0  0
 17 18  1  0  0  0
M  END
>  <CHROM.0>
-179.71546761,119.31600772,-179.67561249,76.00470211,-94.35631269,122.19708032
-95.11264212,-134.74805000,53.08726743,81.02816490,-96.08032163

>  <CHROM.1>
0.57233137,27.39982928,9.10448908,0.57032868,-0.41812224,2.22296451

>  <FORMUL>
      HMD    C11 H10 Br1 N5 O2

>  <HET>
 HMD  A 400      19

>  <HETNAM>
     HMD 4-(5-AMINO-4-OXO-4H-PYRAZOL-3-YL)-2-BROMO-4,5,6,7-TETRA
   2 HMD HYDRO-3AH-PYRROLO[2,3-C]AZEPIN-8-ONE

>  <HETSYN>
     HMD HYMENIALDISINE

>  <Name>
HMD.pdb

>  <RI>
0

>  <Rbt.Current_Directory>
/home/malgorzata/Desktop/rDOCK_IFD/Wyniki/2_CDK2/IFD

>  <Rbt.Executable>
rbdock ($Id: //depot/dev/client3/rdock/2013.1/src/exe/rbdock.cxx#4 $)

>  <Rbt.Library>
libRbt.so (2013.1, Build901 2013/11/27)

>  <Rbt.Parameter_File>
/home/malgorzata/Desktop/rDock_2013.1_src/data/scripts/dock.prm

>  <Rbt.Receptor>
cavity.prm

>  <SCORE>
-59.8793

>  <SCORE.INTER>
-9.83472

>  <SCORE.INTER.CONST>
1

>  <SCORE.INTER.POLAR>
0

>  <SCORE.INTER.REPUL>
0

>  <SCORE.INTER.ROT>
0

>  <SCORE.INTER.VDW>
-15.2347

>  <SCORE.INTER.norm>
-0.517617

>  <SCORE.INTRA>
0

>  <SCORE.INTRA.DIHEDRAL>
0

>  <SCORE.INTRA.DIHEDRAL.0>
0

>  <SCORE.INTRA.POLAR>
0

>  <SCORE.INTRA.POLAR.0>
0

>  <SCORE.INTRA.REPUL>
0

>  <SCORE.INTRA.REPUL.0>
0

>  <SCORE.INTRA.VDW>
0

>  <SCORE.INTRA.VDW.0>
0

>  <SCORE.INTRA.norm>
0

>  <SCORE.RESTR>
0

>  <SCORE.RESTR.CAVITY>
0

>  <SCORE.RESTR.norm>
0

>  <SCORE.SYSTEM>
-50.0446

>  <SCORE.SYSTEM.CONST>
0

>  <SCORE.SYSTEM.DIHEDRAL>
10.322

>  <SCORE.SYSTEM.POLAR>
-7.01694

>  <SCORE.SYSTEM.REPUL>
0.0732571

>  <SCORE.SYSTEM.VDW>
-31.7143

>  <SCORE.SYSTEM.norm>
-2.63393

>  <SCORE.heavy>
19

>  <SCORE.norm>
-3.15154

$$$$
HMD.pdb
  rDOCK(R)          3D
libRbt.so/2013.1/901 2013/11/27
 24 26  0  0  0  0  0  0  0  0999 V2000
    4.2167   29.4238    7.1433 Br  0  0  0  0  0  0
    6.4772   27.1714    2.8430 O   0  0  0  0  0  0
    4.7986   21.0075    6.4371 O   0  0  0  0  0  0
    5.1441   27.7739    5.1195 N   0  0  0  0  0  0
    5.7571   24.9975    2.8294 N   0  0  0  0  0  0
    3.6841   21.6739    8.3356 N   0  0  0  0  0  0
    3.8497   23.9006    8.0990 N   0  0  0  0  0  0
    2.7266   23.0829    9.9635 N   0  0  0  0  0  0
    4.6711   27.8056    6.3673 C   0  0  0  0  0  0
    4.5902   26.5512    6.8966 C   0  0  0  0  0  0
    5.0410   25.6618    5.8844 C   0  0  0  0  0  0
    5.3884   26.4914    4.7738 C   0  0  0  0  0  0
    5.9067   26.2378    3.4225 C   0  0  0  0  0  0
    5.1117   23.7931    3.3791 C   0  0  0  0  0  0
    5.6739   23.3673    4.7234 C   0  0  0  0  0  0
    5.0466   24.1146    5.8969 C   0  0  0  0  0  0
    4.4793   23.3929    6.9527 C   0  0  0  0  0  0
    4.3591   21.8966    7.1827 C   0  0  0  0  0  0
    3.3911   22.8771    8.8426 C   0  0  0  0  0  0
    5.2911   28.5589    4.5439 H   0  0  0  0  0  0
    6.1302   24.9081    1.9227 H   0  0  0  0  0  0
    3.7578   24.8547    8.3237 H   0  0  0  0  0  0
    2.4011   22.3176   10.4904 H   0  0  0  0  0  0
    2.5562   24.0018   10.2730 H   0  0  0  0  0  0
  1  9  1  0  0  0
  2 13  2  0  0  0
  3 18  2  0  0  0
  4  9  1  0  0  0
  4 12  1  0  0  0
  4 20  1  0  0  0
  5 13  1  0  0  0
  5 14  1  0  0  0
  5 21  1  0  0  0
  6 18  1  0  0  0
  6 19  2  0  0  0
  7 17  1  0  0  0
  7 19  1  0  0  0
  7 22  1  0  0  0
  8 19  1  0  0  0
  8 23  1  0  0  0
  8 24  1  0  0  0
  9 10  2  0  0  0
 10 11  1  0  0  0
 11 12  2  0  0  0
 11 16  1  0  0  0
 12 13  1  0  0  0
 14 15  1  0  0  0
 15 16  1  0  0  0
 16 17  2  0  0  0
 17 18  1  0  0  0
M  END
>  <CHROM.0>
179.79598591,158.12849448,-179.33389893,-142.86850227,125.04796994,-116.85938391
102.13525169,-114.76544529,174.10338769,-56.15993231,32.94877886

>  <CHROM.1>
4.64280658,25.72820201,6.26906720,1.39039953,1.15360928,0.00147398

>  <FORMUL>
      HMD    C11 H10 Br1 N5 O2

>  <HET>
 HMD  A 400      19

>  <HETNAM>
     HMD 4-(5-AMINO-4-OXO-4H-PYRAZOL-3-YL)-2-BROMO-4,5,6,7-TETRA
   2 HMD HYDRO-3AH-PYRROLO[2,3-C]AZEPIN-8-ONE

>  <HETSYN>
     HMD HYMENIALDISINE

>  <Name>
HMD.pdb

>  <RI>
0

>  <Rbt.Current_Directory>
/home/malgorzata/Desktop/rDOCK_IFD/Wyniki/2_CDK2/IFD

>  <Rbt.Executable>
rbdock ($Id: //depot/dev/client3/rdock/2013.1/src/exe/rbdock.cxx#4 $)

>  <Rbt.Library>
libRbt.so (2013.1, Build901 2013/11/27)

>  <Rbt.Parameter_File>
/home/malgorzata/Desktop/rDock_2013.1_src/data/scripts/dock.prm

>  <Rbt.Receptor>
cavity.prm

>  <SCORE>
-61.0595

>  <SCORE.INTER>
-10.981

>  <SCORE.INTER.CONST>
1

>  <SCORE.INTER.POLAR>
-0.355534

>  <SCORE.INTER.REPUL>
0

>  <SCORE.INTER.ROT>
0

>  <SCORE.INTER.VDW>
-15.1722

>  <SCORE.INTER.norm>
-0.577949

>  <SCORE.INTRA>
0

>  <SCORE.INTRA.DIHEDRAL>
0

>  <SCORE.INTRA.DIHEDRAL.0>
0

>  <SCORE.INTRA.POLAR>
0

>  <SCORE.INTRA.POLAR.0>
0

>  <SCORE.INTRA.REPUL>
0

>  <SCORE.INTRA.REPUL.0>
0

>  <SCORE.INTRA.VDW>
0

>  <SCORE.INTRA.VDW.0>
0

>  <SCORE.INTRA.norm>
0

>  <SCORE.RESTR>
0

>  <SCORE.RESTR.CAVITY>
0

>  <SCORE.RESTR.norm>
0

>  <SCORE.SYSTEM>
-50.0784

>  <SCORE.SYSTEM.CONST>
0

>  <SCORE.SYSTEM.DIHEDRAL>
7.58236

>  <SCORE.SYSTEM.POLAR>
-6.6408

>  <SCORE.SYSTEM.REPUL>
0.0806134

>  <SCORE.SYSTEM.VDW>
-31.694

>  <SCORE.SYSTEM.norm>
-2.63571

>  <SCORE.heavy>
19

>  <SCORE.norm>
-3.21366

$$$$
HMD.pdb
  rDOCK(R)          3D
libRbt.so/2013.1/901 2013/11/27
 24 26  0  0  0  0  0  0  0  0999 V2000
    4.7722   27.9962    5.3757 Br  0  0  0  0  0  0
    0.7405   27.8342    8.8965 O   0  0  0  0  0  0
    3.7649   21.3619   10.5374 O   0  0  0  0  0  0
    2.9843   27.4739    7.4272 N   0  0  0  0  0  0
    1.3304   26.2527   10.4442 N   0  0  0  0  0  0
    5.6418   21.1958    9.2182 N   0  0  0  0  0  0
    5.4296   23.0913    8.0333 N   0  0  0  0  0  0
    7.2692   21.7362    7.6022 N   0  0  0  0  0  0
    3.9795   26.9682    6.6956 C   0  0  0  0  0  0
    4.2706   25.6905    7.0741 C   0  0  0  0  0  0
    3.3867   25.3804    8.1424 C   0  0  0  0  0  0
    2.5830   26.5478    8.3246 C   0  0  0  0  0  0
    1.4954   26.9155    9.2417 C   0  0  0  0  0  0
    2.1328   25.1480   10.9967 C   0  0  0  0  0  0
    2.2450   23.9572   10.0619 C   0  0  0  0  0  0
    3.3570   24.1121    9.0283 C   0  0  0  0  0  0
    4.3327   23.1167    8.9076 C   0  0  0  0  0  0
    4.5160   21.8083    9.6563 C   0  0  0  0  0  0
    6.1590   21.9854    8.2697 C   0  0  0  0  0  0
    2.6040   28.3766    7.3286 H   0  0  0  0  0  0
    0.5799   26.5586   11.0030 H   0  0  0  0  0  0
    5.6334   23.7744    7.3543 H   0  0  0  0  0  0
    7.7858   20.9201    7.7931 H   0  0  0  0  0  0
    7.5811   22.3662    6.9130 H   0  0  0  0  0  0
  1  9  1  0  0  0
  2 13  2  0  0  0
  3 18  2  0  0  0
  4  9  1  0  0  0
  4 12  1  0  0  0
  4 20  1  0  0  0
  5 13  1  0  0  0
  5 14  1  0  0  0
  5 21  1  0  0  0
  6 18  1  0  0  0
  6 19  2  0  0  0
  7 17  1  0  0  0
  7 19  1  0  0  0
  7 22  1  0  0  0
  8 19  1  0  0  0
  8 23  1  0  0  0
  8 24  1  0  0  0
  9 10  2  0  0  0
 10 11  1  0  0  0
 11 12  2  0  0  0
 11 16  1  0  0  0
 12 13  1  0  0  0
 14 15  1  0  0  0
 15 16  1  0  0  0
 16 17  2  0  0  0
 17 18  1  0  0  0
M  END
>  <CHROM.0>
-179.56444791,-67.92278903,-179.89563373,-141.94291421,-81.50847981,123.27173714
41.70969549,-53.88456588,-174.10428795,-179.74786883,-25.10672095

>  <CHROM.1>
3.91854904,25.33440221,7.98136677,-1.72515762,-0.67445721,2.53799429

>  <FORMUL>
      HMD    C11 H10 Br1 N5 O2

>  <HET>
 HMD  A 400      19

>  <HETNAM>
     HMD 4-(5-AMINO-4-OXO-4H-PYRAZOL-3-YL)-2-BROMO-4,5,6,7-TETRA
   2 HMD HYDRO-3AH-PYRROLO[2,3-C]AZEPIN-8-ONE

>  <HETSYN>
     HMD HYMENIALDISINE

>  <Name>
HMD.pdb

>  <RI>
0

>  <Rbt.Current_Directory>
/home/malgorzata/Desktop/rDOCK_IFD/Wyniki/2_CDK2/IFD

>  <Rbt.Executable>
rbdock ($Id: //depot/dev/client3/rdock/2013.1/src/exe/rbdock.cxx#4 $)

>  <Rbt.Library>
libRbt.so (2013.1, Build901 2013/11/27)

>  <Rbt.Parameter_File>
/home/malgorzata/Desktop/rDock_2013.1_src/data/scripts/dock.prm

>  <Rbt.Receptor>
cavity.prm

>  <SCORE>
-55.9167

>  <SCORE.INTER>
-8.6254

>  <SCORE.INTER.CONST>
1

>  <SCORE.INTER.POLAR>
0

>  <SCORE.INTER.REPUL>
0

>  <SCORE.INTER.ROT>
0

>  <SCORE.INTER.VDW>
-14.0254

>  <SCORE.INTER.norm>
-0.453968

>  <SCORE.INTRA>
0

>  <SCORE.INTRA.DIHEDRAL>
0

>  <SCORE.INTRA.DIHEDRAL.0>
0

>  <SCORE.INTRA.POLAR>
0

>  <SCORE.INTRA.POLAR.0>
0

>  <SCORE.INTRA.REPUL>
0

>  <SCORE.INTRA.REPUL.0>
0

>  <SCORE.INTRA.VDW>
0

>  <SCORE.INTRA.VDW.0>
0

>  <SCORE.INTRA.norm>
0

>  <SCORE.RESTR>
0

>  <SCORE.RESTR.CAVITY>
0

>  <SCORE.RESTR.norm>
0

>  <SCORE.SYSTEM>
-47.2913

>  <SCORE.SYSTEM.CONST>
0

>  <SCORE.SYSTEM.DIHEDRAL>
8.22752

>  <SCORE.SYSTEM.POLAR>
-6.30187

>  <SCORE.SYSTEM.REPUL>
0.11104

>  <SCORE.SYSTEM.VDW>
-30.5339

>  <SCORE.SYSTEM.norm>
-2.48902

>  <SCORE.heavy>
19

>  <SCORE.norm>
-2.94298

$$$$
HMD.pdb
  rDOCK(R)          3D
libRbt.so/2013.1/901 2013/11/27
 24 26  0  0  0  0  0  0  0  0999 V2000
    6.8631   21.9819    9.2631 Br  0  0  0  0  0  0
    6.9081   24.7342    4.6697 O   0  0  0  0  0  0
    1.1939   28.0959    7.7965 O   0  0  0  0  0  0
    6.5305   23.7641    7.1675 N   0  0  0  0  0  0
    5.7017   26.6382    5.0744 N   0  0  0  0  0  0
    0.9942   27.1708    9.8929 N   0  0  0  0  0  0
    2.6128   25.6196    9.7681 N   0  0  0  0  0  0
    1.4055   25.7787   11.7490 N   0  0  0  0  0  0
    6.0103   23.3242    8.3154 C   0  0  0  0  0  0
    4.8596   23.9889    8.6227 C   0  0  0  0  0  0
    4.6540   24.9324    7.5804 C   0  0  0  0  0  0
    5.7432   24.7444    6.6745 C   0  0  0  0  0  0
    6.1518   25.3748    5.4116 C   0  0  0  0  0  0
    4.8057   27.5236    5.8379 C   0  0  0  0  0  0
    3.4853   26.8723    6.2078 C   0  0  0  0  0  0
    3.5695   26.0312    7.4784 C   0  0  0  0  0  0
    2.6779   26.2741    8.5289 C   0  0  0  0  0  0
    1.5521   27.2842    8.6640 C   0  0  0  0  0  0
    1.6511   26.1875   10.5190 C   0  0  0  0  0  0
    7.3552   23.4281    6.7479 H   0  0  0  0  0  0
    6.0215   26.9915    4.2130 H   0  0  0  0  0  0
    3.1806   24.8644   10.0446 H   0  0  0  0  0  0
    0.6965   26.2100   12.2787 H   0  0  0  0  0  0
    1.9312   25.0424   12.1371 H   0  0  0  0  0  0
  1  9  1  0  0  0
  2 13  2  0  0  0
  3 18  2  0  0  0
  4  9  1  0  0  0
  4 12  1  0  0  0
  4 20  1  0  0  0
  5 13  1  0  0  0
  5 14  1  0  0  0
  5 21  1  0  0  0
  6 18  1  0  0  0
  6 19  2  0  0  0
  7 17  1  0  0  0
  7 19  1  0  0  0
  7 22  1  0  0  0
  8 19  1  0  0  0
  8 23  1  0  0  0
  8 24  1  0  0  0
  9 10  2  0  0  0
 10 11  1  0  0  0
 11 12  2  0  0  0
 11 16  1  0  0  0
 12 13  1  0  0  0
 14 15  1  0  0  0
 15 16  1  0  0  0
 16 17  2  0  0  0
 17 18  1  0  0  0
M  END
>  <CHROM.0>
-179.49764205,-99.91913851,179.99240199,76.43593989,105.66455799,118.85356403
88.57836999,130.78972170,166.62751409,-56.73393929,82.01417432

>  <CHROM.1>
4.63670614,24.87560697,8.13481699,0.31411659,-0.66278423,2.19437328

>  <FORMUL>
      HMD    C11 H10 Br1 N5 O2

>  <HET>
 HMD  A 400      19

>  <HETNAM>
     HMD 4-(5-AMINO-4-OXO-4H-PYRAZOL-3-YL)-2-BROMO-4,5,6,7-TETRA
   2 HMD HYDRO-3AH-PYRROLO[2,3-C]AZEPIN-8-ONE

>  <HETSYN>
     HMD HYMENIALDISINE

>  <Name>
HMD.pdb

>  <RI>
0

>  <Rbt.Current_Directory>
/home/malgorzata/Desktop/rDOCK_IFD/Wyniki/2_CDK2/IFD

>  <Rbt.Executable>
rbdock ($Id: //depot/dev/client3/rdock/2013.1/src/exe/rbdock.cxx#4 $)

>  <Rbt.Library>
libRbt.so (2013.1, Build901 2013/11/27)

>  <Rbt.Parameter_File>
/home/malgorzata/Desktop/rDock_2013.1_src/data/scripts/dock.prm

>  <Rbt.Receptor>
cavity.prm

>  <SCORE>
-59.2245

>  <SCORE.INTER>
-10.4578

>  <SCORE.INTER.CONST>
1

>  <SCORE.INTER.POLAR>
-0.0971794

>  <SCORE.INTER.REPUL>
0.133069

>  <SCORE.INTER.ROT>
0

>  <SCORE.INTER.VDW>
-16.1927

>  <SCORE.INTER.norm>
-0.55041

>  <SCORE.INTRA>
0

>  <SCORE.INTRA.DIHEDRAL>
0

>  <SCORE.INTRA.DIHEDRAL.0>
0

>  <SCORE.INTRA.POLAR>
0

>  <SCORE.INTRA.POLAR.0>
0

>  <SCORE.INTRA.REPUL>
0

>  <SCORE.INTRA.REPUL.0>
0

>  <SCORE.INTRA.VDW>
0

>  <SCORE.INTRA.VDW.0>
0

>  <SCORE.INTRA.norm>
0

>  <SCORE.RESTR>
0

>  <SCORE.RESTR.CAVITY>
0

>  <SCORE.RESTR.norm>
0

>  <SCORE.SYSTEM>
-48.7667

>  <SCORE.SYSTEM.CONST>
0

>  <SCORE.SYSTEM.DIHEDRAL>
7.1277

>  <SCORE.SYSTEM.POLAR>
-6.48422

>  <SCORE.SYSTEM.REPUL>
0.0886561

>  <SCORE.SYSTEM.VDW>
-30.7275

>  <SCORE.SYSTEM.norm>
-2.56667

>  <SCORE.heavy>
19

>  <SCORE.norm>
-3.11708

$$$$
