HMD.pdb
  rDOCK(R)          3D
libRbt.so/2013.1/901 2013/11/27
 24 26  0  0  0  0  0  0  0  0999 V2000
   -0.8437   24.3548    8.9577 Br  0  0  0  0  0  0
   -3.7075   26.1198   13.1242 O   0  0  0  0  0  0
   -1.6800   32.6431   10.4662 O   0  0  0  0  0  0
   -2.2894   25.7784   10.8449 N   0  0  0  0  0  0
   -4.1821   28.3131   12.6674 N   0  0  0  0  0  0
   -0.4893   32.1954    8.5500 N   0  0  0  0  0  0
   -0.4919   29.9514    8.6291 N   0  0  0  0  0  0
    0.5792   30.9779    6.8388 N   0  0  0  0  0  0
   -1.4087   25.8772    9.8468 C   0  0  0  0  0  0
   -1.0523   27.1757    9.6296 C   0  0  0  0  0  0
   -1.7852   27.9521   10.5670 C   0  0  0  0  0  0
   -2.5539   27.0137   11.3225 C   0  0  0  0  0  0
   -3.5175   27.1246   12.4263 C   0  0  0  0  0  0
   -4.0691   29.5881   11.9386 C   0  0  0  0  0  0
   -2.6452   30.1059   11.8456 C   0  0  0  0  0  0
   -1.8609   29.4928   10.6890 C   0  0  0  0  0  0
   -1.2372   30.3285    9.7563 C   0  0  0  0  0  0
   -1.1770   31.8430    9.6623 C   0  0  0  0  0  0
   -0.1099   31.0553    7.9610 C   0  0  0  0  0  0
   -2.6828   24.9402   11.1791 H   0  0  0  0  0  0
   -4.8121   28.3062   13.4239 H   0  0  0  0  0  0
   -0.2816   29.0257    8.3683 H   0  0  0  0  0  0
    0.8473   31.8000    6.3681 H   0  0  0  0  0  0
    0.8255   30.0981    6.4721 H   0  0  0  0  0  0
  1  9  1  0  0  0
  2 13  2  0  0  0
  3 18  2  0  0  0
  4  9  1  0  0  0
  4 12  1  0  0  0
  4 20  1  0  0  0
  5 13  1  0  0  0
  5 14  1  0  0  0
  5 21  1  0  0  0
  6 18  1  0  0  0
  6 19  2  0  0  0
  7 17  1  0  0  0
  7 19  1  0  0  0
  7 22  1  0  0  0
  8 19  1  0  0  0
  8 23  1  0  0  0
  8 24  1  0  0  0
  9 10  2  0  0  0
 10 11  1  0  0  0
 11 12  2  0  0  0
 11 16  1  0  0  0
 12 13  1  0  0  0
 14 15  1  0  0  0
 15 16  1  0  0  0
 16 17  2  0  0  0
 17 18  1  0  0  0
M  END
>  <CHROM.0>
-86.37836207,65.75925366,-121.12137875,-116.58890807,-100.86736943,173.49574551

>  <CHROM.1>
-1.62855813,27.93715706,10.03210595,-1.65568376,0.90306495,0.00514954

>  <FORMUL>
      HMD    C11 H10 Br1 N5 O2

>  <HET>
 HMD  A 400      19

>  <HETNAM>
     HMD 4-(5-AMINO-4-OXO-4H-PYRAZOL-3-YL)-2-BROMO-4,5,6,7-TETRA
   2 HMD HYDRO-3AH-PYRROLO[2,3-C]AZEPIN-8-ONE

>  <HETSYN>
     HMD HYMENIALDISINE

>  <Name>
HMD.pdb

>  <RI>
0

>  <Rbt.Current_Directory>
/home/malgorzata/Desktop/rDOCK_IFD/Wyniki/2_CDK2/IFD

>  <Rbt.Executable>
rbdock ($Id: //depot/dev/client3/rdock/2013.1/src/exe/rbdock.cxx#4 $)

>  <Rbt.Library>
libRbt.so (2013.1, Build901 2013/11/27)

>  <Rbt.Parameter_File>
/home/malgorzata/Desktop/rDock_2013.1_src/data/scripts/dock.prm

>  <Rbt.Receptor>
cavity.prm

>  <SCORE>
-20.0547

>  <SCORE.INTER>
-15.1316

>  <SCORE.INTER.CONST>
1

>  <SCORE.INTER.POLAR>
-1.41589

>  <SCORE.INTER.REPUL>
0.335353

>  <SCORE.INTER.ROT>
0

>  <SCORE.INTER.VDW>
-17.3943

>  <SCORE.INTER.norm>
-0.7964

>  <SCORE.INTRA>
0

>  <SCORE.INTRA.DIHEDRAL>
0

>  <SCORE.INTRA.DIHEDRAL.0>
0

>  <SCORE.INTRA.POLAR>
0

>  <SCORE.INTRA.POLAR.0>
0

>  <SCORE.INTRA.REPUL>
0

>  <SCORE.INTRA.REPUL.0>
0

>  <SCORE.INTRA.VDW>
0

>  <SCORE.INTRA.VDW.0>
0

>  <SCORE.INTRA.norm>
0

>  <SCORE.RESTR>
0

>  <SCORE.RESTR.CAVITY>
0

>  <SCORE.RESTR.norm>
0

>  <SCORE.SYSTEM>
-4.92313

>  <SCORE.SYSTEM.CONST>
0

>  <SCORE.SYSTEM.DIHEDRAL>
5.40982

>  <SCORE.SYSTEM.POLAR>
-1.61245

>  <SCORE.SYSTEM.VDW>
-2.14571

>  <SCORE.SYSTEM.norm>
-0.259112

>  <SCORE.heavy>
19

>  <SCORE.norm>
-1.05551

$$$$
HMD.pdb
  rDOCK(R)          3D
libRbt.so/2013.1/901 2013/11/27
 24 26  0  0  0  0  0  0  0  0999 V2000
    1.6496   20.3769    9.7157 Br  0  0  0  0  0  0
    0.6870   24.9108    7.0337 O   0  0  0  0  0  0
   -3.5808   26.2553   12.8396 O   0  0  0  0  0  0
    0.9241   22.8999    8.8289 N   0  0  0  0  0  0
   -0.1686   26.3740    8.5738 N   0  0  0  0  0  0
   -3.2806   24.4736   14.2629 N   0  0  0  0  0  0
   -1.9191   23.2146   12.9969 N   0  0  0  0  0  0
   -2.5083   22.4097   15.0972 N   0  0  0  0  0  0
    0.7023   21.9670    9.7573 C   0  0  0  0  0  0
   -0.2477   22.3728   10.6479 C   0  0  0  0  0  0
   -0.6413   23.6768   10.2439 C   0  0  0  0  0  0
    0.1303   23.9642    9.0759 C   0  0  0  0  0  0
    0.2321   25.1144    8.1671 C   0  0  0  0  0  0
   -0.7272   26.7801    9.8747 C   0  0  0  0  0  0
   -1.9501   25.9787   10.2830 C   0  0  0  0  0  0
   -1.5993   24.6575   10.9613 C   0  0  0  0  0  0
   -2.1366   24.3615   12.2188 C   0  0  0  0  0  0
   -3.0770   25.1540   13.1096 C   0  0  0  0  0  0
   -2.5748   23.3409   14.1652 C   0  0  0  0  0  0
    1.5634   22.8243    8.0841 H   0  0  0  0  0  0
   -0.0674   27.0919    7.9078 H   0  0  0  0  0  0
   -1.3731   22.4399   12.7303 H   0  0  0  0  0  0
   -2.9972   22.5249   15.9439 H   0  0  0  0  0  0
   -1.9700   21.5994   14.9459 H   0  0  0  0  0  0
  1  9  1  0  0  0
  2 13  2  0  0  0
  3 18  2  0  0  0
  4  9  1  0  0  0
  4 12  1  0  0  0
  4 20  1  0  0  0
  5 13  1  0  0  0
  5 14  1  0  0  0
  5 21  1  0  0  0
  6 18  1  0  0  0
  6 19  2  0  0  0
  7 17  1  0  0  0
  7 19  1  0  0  0
  7 22  1  0  0  0
  8 19  1  0  0  0
  8 23  1  0  0  0
  8 24  1  0  0  0
  9 10  2  0  0  0
 10 11  1  0  0  0
 11 12  2  0  0  0
 11 16  1  0  0  0
 12 13  1  0  0  0
 14 15  1  0  0  0
 15 16  1  0  0  0
 16 17  2  0  0  0
 17 18  1  0  0  0
M  END
>  <CHROM.0>
-86.81390049,65.72957957,52.34061731,-111.45052584,-93.82257017,60.99973443

>  <CHROM.1>
-0.50969357,23.37440038,10.69343763,0.04302485,-0.89157233,2.47910899

>  <FORMUL>
      HMD    C11 H10 Br1 N5 O2

>  <HET>
 HMD  A 400      19

>  <HETNAM>
     HMD 4-(5-AMINO-4-OXO-4H-PYRAZOL-3-YL)-2-BROMO-4,5,6,7-TETRA
   2 HMD HYDRO-3AH-PYRROLO[2,3-C]AZEPIN-8-ONE

>  <HETSYN>
     HMD HYMENIALDISINE

>  <Name>
HMD.pdb

>  <RI>
0

>  <Rbt.Current_Directory>
/home/malgorzata/Desktop/rDOCK_IFD/Wyniki/2_CDK2/IFD

>  <Rbt.Executable>
rbdock ($Id: //depot/dev/client3/rdock/2013.1/src/exe/rbdock.cxx#4 $)

>  <Rbt.Library>
libRbt.so (2013.1, Build901 2013/11/27)

>  <Rbt.Parameter_File>
/home/malgorzata/Desktop/rDock_2013.1_src/data/scripts/dock.prm

>  <Rbt.Receptor>
cavity.prm

>  <SCORE>
-24.9566

>  <SCORE.INTER>
-18.0665

>  <SCORE.INTER.CONST>
1

>  <SCORE.INTER.POLAR>
-2.39661

>  <SCORE.INTER.REPUL>
0

>  <SCORE.INTER.ROT>
0

>  <SCORE.INTER.VDW>
-15.3181

>  <SCORE.INTER.norm>
-0.950871

>  <SCORE.INTRA>
0

>  <SCORE.INTRA.DIHEDRAL>
0

>  <SCORE.INTRA.DIHEDRAL.0>
0

>  <SCORE.INTRA.POLAR>
0

>  <SCORE.INTRA.POLAR.0>
0

>  <SCORE.INTRA.REPUL>
0

>  <SCORE.INTRA.REPUL.0>
0

>  <SCORE.INTRA.VDW>
0

>  <SCORE.INTRA.VDW.0>
0

>  <SCORE.INTRA.norm>
0

>  <SCORE.RESTR>
0

>  <SCORE.RESTR.CAVITY>
0

>  <SCORE.RESTR.norm>
0

>  <SCORE.SYSTEM>
-6.8901

>  <SCORE.SYSTEM.CONST>
0

>  <SCORE.SYSTEM.DIHEDRAL>
1.75382

>  <SCORE.SYSTEM.POLAR>
-1.61231

>  <SCORE.SYSTEM.REPUL>
0.0676051

>  <SCORE.SYSTEM.VDW>
-2.62319

>  <SCORE.SYSTEM.norm>
-0.362637

>  <SCORE.heavy>
19

>  <SCORE.norm>
-1.31351

$$$$
HMD.pdb
  rDOCK(R)          3D
libRbt.so/2013.1/901 2013/11/27
 24 26  0  0  0  0  0  0  0  0999 V2000
    1.3258   32.0203    8.1388 Br  0  0  0  0  0  0
   -0.7114   27.1415    8.9893 O   0  0  0  0  0  0
   -5.1414   30.8743   13.4804 O   0  0  0  0  0  0
   -0.1628   29.7863    8.8255 N   0  0  0  0  0  0
   -2.7833   27.4839    9.9028 N   0  0  0  0  0  0
   -4.5581   33.0860   13.2388 N   0  0  0  0  0  0
   -2.8244   32.8592   11.8301 N   0  0  0  0  0  0
   -3.4090   35.0069   12.5026 N   0  0  0  0  0  0
    0.0425   31.0794    9.0849 C   0  0  0  0  0  0
   -0.7911   31.5240   10.0687 C   0  0  0  0  0  0
   -1.5923   30.4124   10.4444 C   0  0  0  0  0  0
   -1.1482   29.3275    9.6271 C   0  0  0  0  0  0
   -1.5372   27.9174    9.4881 C   0  0  0  0  0  0
   -3.8691   28.2711   10.5117 C   0  0  0  0  0  0
   -3.4390   29.0353   11.7508 C   0  0  0  0  0  0
   -2.7857   30.3763   11.4286 C   0  0  0  0  0  0
   -3.2812   31.5457   12.0154 C   0  0  0  0  0  0
   -4.4264   31.7614   12.9891 C   0  0  0  0  0  0
   -3.6043   33.7025   12.5312 C   0  0  0  0  0  0
    0.3255   29.2529    8.1576 H   0  0  0  0  0  0
   -2.9684   26.5256    9.7746 H   0  0  0  0  0  0
   -2.0550   33.1223   11.2751 H   0  0  0  0  0  0
   -3.9930   35.6036   13.0243 H   0  0  0  0  0  0
   -2.6791   35.3835   11.9598 H   0  0  0  0  0  0
  1  9  1  0  0  0
  2 13  2  0  0  0
  3 18  2  0  0  0
  4  9  1  0  0  0
  4 12  1  0  0  0
  4 20  1  0  0  0
  5 13  1  0  0  0
  5 14  1  0  0  0
  5 21  1  0  0  0
  6 18  1  0  0  0
  6 19  2  0  0  0
  7 17  1  0  0  0
  7 19  1  0  0  0
  7 22  1  0  0  0
  8 19  1  0  0  0
  8 23  1  0  0  0
  8 24  1  0  0  0
  9 10  2  0  0  0
 10 11  1  0  0  0
 11 12  2  0  0  0
 11 16  1  0  0  0
 12 13  1  0  0  0
 14 15  1  0  0  0
 15 16  1  0  0  0
 16 17  2  0  0  0
 17 18  1  0  0  0
M  END
>  <CHROM.0>
107.17832296,-122.99770410,168.93544728,-113.78566567,-140.92408907,-178.41083484

>  <CHROM.1>
-1.61842378,30.95765829,10.33098704,-0.30883370,0.67139723,0.25074046

>  <FORMUL>
      HMD    C11 H10 Br1 N5 O2

>  <HET>
 HMD  A 400      19

>  <HETNAM>
     HMD 4-(5-AMINO-4-OXO-4H-PYRAZOL-3-YL)-2-BROMO-4,5,6,7-TETRA
   2 HMD HYDRO-3AH-PYRROLO[2,3-C]AZEPIN-8-ONE

>  <HETSYN>
     HMD HYMENIALDISINE

>  <Name>
HMD.pdb

>  <RI>
0

>  <Rbt.Current_Directory>
/home/malgorzata/Desktop/rDOCK_IFD/Wyniki/2_CDK2/IFD

>  <Rbt.Executable>
rbdock ($Id: //depot/dev/client3/rdock/2013.1/src/exe/rbdock.cxx#4 $)

>  <Rbt.Library>
libRbt.so (2013.1, Build901 2013/11/27)

>  <Rbt.Parameter_File>
/home/malgorzata/Desktop/rDock_2013.1_src/data/scripts/dock.prm

>  <Rbt.Receptor>
cavity.prm

>  <SCORE>
-14.3562

>  <SCORE.INTER>
-10.2222

>  <SCORE.INTER.CONST>
1

>  <SCORE.INTER.POLAR>
-0.0144461

>  <SCORE.INTER.REPUL>
0.0539036

>  <SCORE.INTER.ROT>
0

>  <SCORE.INTER.VDW>
-15.8426

>  <SCORE.INTER.norm>
-0.53801

>  <SCORE.INTRA>
0

>  <SCORE.INTRA.DIHEDRAL>
0

>  <SCORE.INTRA.DIHEDRAL.0>
0

>  <SCORE.INTRA.POLAR>
0

>  <SCORE.INTRA.POLAR.0>
0

>  <SCORE.INTRA.REPUL>
0

>  <SCORE.INTRA.REPUL.0>
0

>  <SCORE.INTRA.VDW>
0

>  <SCORE.INTRA.VDW.0>
0

>  <SCORE.INTRA.norm>
0

>  <SCORE.RESTR>
0

>  <SCORE.RESTR.CAVITY>
0

>  <SCORE.RESTR.norm>
0

>  <SCORE.SYSTEM>
-4.13406

>  <SCORE.SYSTEM.CONST>
0

>  <SCORE.SYSTEM.DIHEDRAL>
1.9108

>  <SCORE.SYSTEM.POLAR>
-1.32123

>  <SCORE.SYSTEM.REPUL>
0.0744435

>  <SCORE.SYSTEM.VDW>
-0.969487

>  <SCORE.SYSTEM.norm>
-0.217582

>  <SCORE.heavy>
19

>  <SCORE.norm>
-0.755592

$$$$
HMD.pdb
  rDOCK(R)          3D
libRbt.so/2013.1/901 2013/11/27
 24 26  0  0  0  0  0  0  0  0999 V2000
   -5.3267   30.5045   13.0123 Br  0  0  0  0  0  0
   -1.4896   31.6945    9.4715 O   0  0  0  0  0  0
    0.8048   24.9528   11.2079 O   0  0  0  0  0  0
   -3.2284   30.5540   11.2032 N   0  0  0  0  0  0
   -0.5681   29.6901    8.8568 N   0  0  0  0  0  0
   -0.7563   24.1197   12.6774 N   0  0  0  0  0  0
   -2.0773   25.9245   12.8758 N   0  0  0  0  0  0
   -2.6529   24.0154   14.0718 N   0  0  0  0  0  0
   -3.7950   29.8625   12.1943 C   0  0  0  0  0  0
   -3.1054   28.7143   12.4524 C   0  0  0  0  0  0
   -2.0228   28.6846   11.5327 C   0  0  0  0  0  0
   -2.1422   29.8828   10.7630 C   0  0  0  0  0  0
   -1.3785   30.4753    9.6563 C   0  0  0  0  0  0
   -0.3270   28.2397    8.9443 C   0  0  0  0  0  0
    0.1504   27.7887   10.3129 C   0  0  0  0  0  0
   -0.9924   27.5546   11.2968 C   0  0  0  0  0  0
   -1.0963   26.3252   11.9564 C   0  0  0  0  0  0
   -0.2266   25.0824   11.8855 C   0  0  0  0  0  0
   -1.8511   24.6480   13.2367 C   0  0  0  0  0  0
   -3.5503   31.4146   10.8499 H   0  0  0  0  0  0
   -0.0909   30.1614    8.1362 H   0  0  0  0  0  0
   -2.8145   26.4880   13.2048 H   0  0  0  0  0  0
   -2.4664   23.0813   14.3209 H   0  0  0  0  0  0
   -3.4376   24.4774   14.4459 H   0  0  0  0  0  0
  1  9  1  0  0  0
  2 13  2  0  0  0
  3 18  2  0  0  0
  4  9  1  0  0  0
  4 12  1  0  0  0
  4 20  1  0  0  0
  5 13  1  0  0  0
  5 14  1  0  0  0
  5 21  1  0  0  0
  6 18  1  0  0  0
  6 19  2  0  0  0
  7 17  1  0  0  0
  7 19  1  0  0  0
  7 22  1  0  0  0
  8 19  1  0  0  0
  8 23  1  0  0  0
  8 24  1  0  0  0
  9 10  2  0  0  0
 10 11  1  0  0  0
 11 12  2  0  0  0
 11 16  1  0  0  0
 12 13  1  0  0  0
 14 15  1  0  0  0
 15 16  1  0  0  0
 16 17  2  0  0  0
 17 18  1  0  0  0
M  END
>  <CHROM.0>
-85.26494600,-122.75321955,-61.27362509,-133.72942007,-149.44335995,-175.35884675

>  <CHROM.1>
-2.41926080,28.36448795,11.75903220,2.37487094,0.64662759,-0.51739657

>  <FORMUL>
      HMD    C11 H10 Br1 N5 O2

>  <HET>
 HMD  A 400      19

>  <HETNAM>
     HMD 4-(5-AMINO-4-OXO-4H-PYRAZOL-3-YL)-2-BROMO-4,5,6,7-TETRA
   2 HMD HYDRO-3AH-PYRROLO[2,3-C]AZEPIN-8-ONE

>  <HETSYN>
     HMD HYMENIALDISINE

>  <Name>
HMD.pdb

>  <RI>
0

>  <Rbt.Current_Directory>
/home/malgorzata/Desktop/rDOCK_IFD/Wyniki/2_CDK2/IFD

>  <Rbt.Executable>
rbdock ($Id: //depot/dev/client3/rdock/2013.1/src/exe/rbdock.cxx#4 $)

>  <Rbt.Library>
libRbt.so (2013.1, Build901 2013/11/27)

>  <Rbt.Parameter_File>
/home/malgorzata/Desktop/rDock_2013.1_src/data/scripts/dock.prm

>  <Rbt.Receptor>
cavity.prm

>  <SCORE>
-17.1542

>  <SCORE.INTER>
-12.8839

>  <SCORE.INTER.CONST>
1

>  <SCORE.INTER.POLAR>
0

>  <SCORE.INTER.REPUL>
0

>  <SCORE.INTER.ROT>
0

>  <SCORE.INTER.VDW>
-18.2839

>  <SCORE.INTER.norm>
-0.678098

>  <SCORE.INTRA>
0

>  <SCORE.INTRA.DIHEDRAL>
0

>  <SCORE.INTRA.DIHEDRAL.0>
0

>  <SCORE.INTRA.POLAR>
0

>  <SCORE.INTRA.POLAR.0>
0

>  <SCORE.INTRA.REPUL>
0

>  <SCORE.INTRA.REPUL.0>
0

>  <SCORE.INTRA.VDW>
0

>  <SCORE.INTRA.VDW.0>
0

>  <SCORE.INTRA.norm>
0

>  <SCORE.RESTR>
0

>  <SCORE.RESTR.CAVITY>
0

>  <SCORE.RESTR.norm>
0

>  <SCORE.SYSTEM>
-4.27033

>  <SCORE.SYSTEM.CONST>
0

>  <SCORE.SYSTEM.DIHEDRAL>
1.71637

>  <SCORE.SYSTEM.POLAR>
-1.36572

>  <SCORE.SYSTEM.REPUL>
0.087754

>  <SCORE.SYSTEM.VDW>
-0.923847

>  <SCORE.SYSTEM.norm>
-0.224754

>  <SCORE.heavy>
19

>  <SCORE.norm>
-0.902852

$$$$
HMD.pdb
  rDOCK(R)          3D
libRbt.so/2013.1/901 2013/11/27
 24 26  0  0  0  0  0  0  0  0999 V2000
    2.0504   24.8689    7.6528 Br  0  0  0  0  0  0
    2.1528   29.9762    6.0461 O   0  0  0  0  0  0
   -3.8522   30.3625   10.2319 O   0  0  0  0  0  0
    1.7182   27.5895    7.2451 N   0  0  0  0  0  0
    0.8357   31.1207    7.5294 N   0  0  0  0  0  0
   -4.0945   28.2775   11.1725 N   0  0  0  0  0  0
   -2.3958   27.2151   10.1588 N   0  0  0  0  0  0
   -3.6931   26.0084   11.6645 N   0  0  0  0  0  0
    1.1723   26.4939    7.7773 C   0  0  0  0  0  0
   -0.0226   26.7764    8.3714 C   0  0  0  0  0  0
   -0.2308   28.1719    8.2037 C   0  0  0  0  0  0
    0.9042   28.6426    7.4740 C   0  0  0  0  0  0
    1.3341   29.9560    6.9747 C   0  0  0  0  0  0
   -0.1357   31.2680    8.6267 C   0  0  0  0  0  0
   -1.4361   30.5229    8.3857 C   0  0  0  0  0  0
   -1.3641   29.0514    8.7836 C   0  0  0  0  0  0
   -2.3108   28.5276    9.6706 C   0  0  0  0  0  0
   -3.4909   29.1830   10.3661 C   0  0  0  0  0  0
   -3.4161   27.1326   11.0324 C   0  0  0  0  0  0
    2.5760   27.6243    6.7634 H   0  0  0  0  0  0
    1.1738   31.9596    7.1407 H   0  0  0  0  0  0
   -1.8029   26.4720    9.9028 H   0  0  0  0  0  0
   -4.4450   25.9729   12.2992 H   0  0  0  0  0  0
   -3.1480   25.2049   11.5016 H   0  0  0  0  0  0
  1  9  1  0  0  0
  2 13  2  0  0  0
  3 18  2  0  0  0
  4  9  1  0  0  0
  4 12  1  0  0  0
  4 20  1  0  0  0
  5 13  1  0  0  0
  5 14  1  0  0  0
  5 21  1  0  0  0
  6 18  1  0  0  0
  6 19  2  0  0  0
  7 17  1  0  0  0
  7 19  1  0  0  0
  7 22  1  0  0  0
  8 19  1  0  0  0
  8 23  1  0  0  0
  8 24  1  0  0  0
  9 10  2  0  0  0
 10 11  1  0  0  0
 11 12  2  0  0  0
 11 16  1  0  0  0
 12 13  1  0  0  0
 14 15  1  0  0  0
 15 16  1  0  0  0
 16 17  2  0  0  0
 17 18  1  0  0  0
M  END
>  <CHROM.0>
112.48818398,65.70797922,-173.63086366,-124.15161778,85.07282533,97.86913524

>  <CHROM.1>
-0.26890672,27.76136362,8.57909491,0.32046206,-0.59679737,2.92341546

>  <FORMUL>
      HMD    C11 H10 Br1 N5 O2

>  <HET>
 HMD  A 400      19

>  <HETNAM>
     HMD 4-(5-AMINO-4-OXO-4H-PYRAZOL-3-YL)-2-BROMO-4,5,6,7-TETRA
   2 HMD HYDRO-3AH-PYRROLO[2,3-C]AZEPIN-8-ONE

>  <HETSYN>
     HMD HYMENIALDISINE

>  <Name>
HMD.pdb

>  <RI>
0

>  <Rbt.Current_Directory>
/home/malgorzata/Desktop/rDOCK_IFD/Wyniki/2_CDK2/IFD

>  <Rbt.Executable>
rbdock ($Id: //depot/dev/client3/rdock/2013.1/src/exe/rbdock.cxx#4 $)

>  <Rbt.Library>
libRbt.so (2013.1, Build901 2013/11/27)

>  <Rbt.Parameter_File>
/home/malgorzata/Desktop/rDock_2013.1_src/data/scripts/dock.prm

>  <Rbt.Receptor>
cavity.prm

>  <SCORE>
-26.8658

>  <SCORE.INTER>
-19.8808

>  <SCORE.INTER.CONST>
1

>  <SCORE.INTER.POLAR>
-2.39049

>  <SCORE.INTER.REPUL>
0

>  <SCORE.INTER.ROT>
0

>  <SCORE.INTER.VDW>
-17.1531

>  <SCORE.INTER.norm>
-1.04636

>  <SCORE.INTRA>
0

>  <SCORE.INTRA.DIHEDRAL>
0

>  <SCORE.INTRA.DIHEDRAL.0>
0

>  <SCORE.INTRA.POLAR>
0

>  <SCORE.INTRA.POLAR.0>
0

>  <SCORE.INTRA.REPUL>
0

>  <SCORE.INTRA.REPUL.0>
0

>  <SCORE.INTRA.VDW>
0

>  <SCORE.INTRA.VDW.0>
0

>  <SCORE.INTRA.norm>
0

>  <SCORE.RESTR>
0

>  <SCORE.RESTR.CAVITY>
0

>  <SCORE.RESTR.norm>
0

>  <SCORE.SYSTEM>
-6.98498

>  <SCORE.SYSTEM.CONST>
0

>  <SCORE.SYSTEM.DIHEDRAL>
6.73891

>  <SCORE.SYSTEM.POLAR>
-2.26811

>  <SCORE.SYSTEM.REPUL>
0.0872357

>  <SCORE.SYSTEM.VDW>
-3.07903

>  <SCORE.SYSTEM.norm>
-0.36763

>  <SCORE.heavy>
19

>  <SCORE.norm>
-1.41399

$$$$
HMD.pdb
  rDOCK(R)          3D
libRbt.so/2013.1/901 2013/11/27
 24 26  0  0  0  0  0  0  0  0999 V2000
    0.8172   24.9445    7.7883 Br  0  0  0  0  0  0
    2.2044   29.7138    5.7868 O   0  0  0  0  0  0
   -2.7401   32.0707   10.6578 O   0  0  0  0  0  0
    1.2561   27.6196    7.2144 N   0  0  0  0  0  0
    1.5177   31.2592    7.3311 N   0  0  0  0  0  0
   -3.4544   30.1954   11.7818 N   0  0  0  0  0  0
   -2.3153   28.6281   10.6470 N   0  0  0  0  0  0
   -3.6812   27.9316   12.3950 N   0  0  0  0  0  0
    0.4914   26.7637    7.8957 C   0  0  0  0  0  0
   -0.4658   27.4197    8.6126 C   0  0  0  0  0  0
   -0.2703   28.8049    8.3640 C   0  0  0  0  0  0
    0.8353   28.8789    7.4616 C   0  0  0  0  0  0
    1.5604   29.9787    6.8105 C   0  0  0  0  0  0
    0.8040   31.7362    8.5279 C   0  0  0  0  0  0
   -0.6800   31.4170    8.5130 C   0  0  0  0  0  0
   -0.9932   30.0095    9.0125 C   0  0  0  0  0  0
   -1.9143   29.8330   10.0507 C   0  0  0  0  0  0
   -2.7316   30.8429   10.8370 C   0  0  0  0  0  0
   -3.1761   28.8935   11.6468 C   0  0  0  0  0  0
    2.0061   27.3727    6.6264 H   0  0  0  0  0  0
    2.0306   31.9397    6.8381 H   0  0  0  0  0  0
   -2.0145   27.7304   10.3768 H   0  0  0  0  0  0
   -4.3093   28.1509   13.1208 H   0  0  0  0  0  0
   -3.4302   26.9945   12.2276 H   0  0  0  0  0  0
  1  9  1  0  0  0
  2 13  2  0  0  0
  3 18  2  0  0  0
  4  9  1  0  0  0
  4 12  1  0  0  0
  4 20  1  0  0  0
  5 13  1  0  0  0
  5 14  1  0  0  0
  5 21  1  0  0  0
  6 18  1  0  0  0
  6 19  2  0  0  0
  7 17  1  0  0  0
  7 19  1  0  0  0
  7 22  1  0  0  0
  8 19  1  0  0  0
  8 23  1  0  0  0
  8 24  1  0  0  0
  9 10  2  0  0  0
 10 11  1  0  0  0
 11 12  2  0  0  0
 11 16  1  0  0  0
 12 13  1  0  0  0
 14 15  1  0  0  0
 15 16  1  0  0  0
 16 17  2  0  0  0
 17 18  1  0  0  0
M  END
>  <CHROM.0>
150.10495714,65.61522547,-156.74627940,-117.14302803,150.52352183,63.63407720

>  <CHROM.1>
-0.37433446,28.43956668,8.77221771,0.69310141,-0.77606436,3.10334886

>  <FORMUL>
      HMD    C11 H10 Br1 N5 O2

>  <HET>
 HMD  A 400      19

>  <HETNAM>
     HMD 4-(5-AMINO-4-OXO-4H-PYRAZOL-3-YL)-2-BROMO-4,5,6,7-TETRA
   2 HMD HYDRO-3AH-PYRROLO[2,3-C]AZEPIN-8-ONE

>  <HETSYN>
     HMD HYMENIALDISINE

>  <Name>
HMD.pdb

>  <RI>
0

>  <Rbt.Current_Directory>
/home/malgorzata/Desktop/rDOCK_IFD/Wyniki/2_CDK2/IFD

>  <Rbt.Executable>
rbdock ($Id: //depot/dev/client3/rdock/2013.1/src/exe/rbdock.cxx#4 $)

>  <Rbt.Library>
libRbt.so (2013.1, Build901 2013/11/27)

>  <Rbt.Parameter_File>
/home/malgorzata/Desktop/rDock_2013.1_src/data/scripts/dock.prm

>  <Rbt.Receptor>
cavity.prm

>  <SCORE>
-23.4465

>  <SCORE.INTER>
-16.9925

>  <SCORE.INTER.CONST>
1

>  <SCORE.INTER.POLAR>
-1.34187

>  <SCORE.INTER.REPUL>
0

>  <SCORE.INTER.ROT>
0

>  <SCORE.INTER.VDW>
-17.8301

>  <SCORE.INTER.norm>
-0.89434

>  <SCORE.INTRA>
0

>  <SCORE.INTRA.DIHEDRAL>
0

>  <SCORE.INTRA.DIHEDRAL.0>
0

>  <SCORE.INTRA.POLAR>
0

>  <SCORE.INTRA.POLAR.0>
0

>  <SCORE.INTRA.REPUL>
0

>  <SCORE.INTRA.REPUL.0>
0

>  <SCORE.INTRA.VDW>
0

>  <SCORE.INTRA.VDW.0>
0

>  <SCORE.INTRA.norm>
0

>  <SCORE.RESTR>
0

>  <SCORE.RESTR.CAVITY>
0

>  <SCORE.RESTR.norm>
0

>  <SCORE.SYSTEM>
-6.45408

>  <SCORE.SYSTEM.CONST>
0

>  <SCORE.SYSTEM.DIHEDRAL>
2.84933

>  <SCORE.SYSTEM.POLAR>
-1.65021

>  <SCORE.SYSTEM.REPUL>
0.00606603

>  <SCORE.SYSTEM.VDW>
-2.29837

>  <SCORE.SYSTEM.norm>
-0.339689

>  <SCORE.heavy>
19

>  <SCORE.norm>
-1.23403

$$$$
HMD.pdb
  rDOCK(R)          3D
libRbt.so/2013.1/901 2013/11/27
 24 26  0  0  0  0  0  0  0  0999 V2000
   -5.0039   31.1212   12.9811 Br  0  0  0  0  0  0
   -4.4314   25.7972   13.0462 O   0  0  0  0  0  0
    0.3915   27.2590    7.7233 O   0  0  0  0  0  0
   -4.2366   28.4737   12.6976 N   0  0  0  0  0  0
   -2.4386   25.3738   12.0001 N   0  0  0  0  0  0
    0.4448   29.5511    7.5393 N   0  0  0  0  0  0
   -1.1463   30.0788    9.0332 N   0  0  0  0  0  0
   -0.0758   31.8173    7.9205 N   0  0  0  0  0  0
   -4.1129   29.7029   12.1925 C   0  0  0  0  0  0
   -3.2872   29.7097   11.1069 C   0  0  0  0  0  0
   -2.8506   28.3692   10.9301 C   0  0  0  0  0  0
   -3.4892   27.6196   11.9656 C   0  0  0  0  0  0
   -3.4791   26.2067   12.3691 C   0  0  0  0  0  0
   -1.2443   25.7010   11.2027 C   0  0  0  0  0  0
   -1.5694   26.3166    9.8537 C   0  0  0  0  0  0
   -1.8081   27.8221    9.9261 C   0  0  0  0  0  0
   -1.0759   28.6791    9.0972 C   0  0  0  0  0  0
   -0.0115   28.3847    8.0549 C   0  0  0  0  0  0
   -0.2391   30.5279    8.1465 C   0  0  0  0  0  0
   -4.7845   28.2290   13.4781 H   0  0  0  0  0  0
   -2.5047   24.4419   12.3106 H   0  0  0  0  0  0
   -1.7619   30.6432    9.5546 H   0  0  0  0  0  0
    0.5945   32.1214    7.2667 H   0  0  0  0  0  0
   -0.6244   32.4754    8.4056 H   0  0  0  0  0  0
  1  9  1  0  0  0
  2 13  2  0  0  0
  3 18  2  0  0  0
  4  9  1  0  0  0
  4 12  1  0  0  0
  4 20  1  0  0  0
  5 13  1  0  0  0
  5 14  1  0  0  0
  5 21  1  0  0  0
  6 18  1  0  0  0
  6 19  2  0  0  0
  7 17  1  0  0  0
  7 19  1  0  0  0
  7 22  1  0  0  0
  8 19  1  0  0  0
  8 23  1  0  0  0
  8 24  1  0  0  0
  9 10  2  0  0  0
 10 11  1  0  0  0
 11 12  2  0  0  0
 11 16  1  0  0  0
 12 13  1  0  0  0
 14 15  1  0  0  0
 15 16  1  0  0  0
 16 17  2  0  0  0
 17 18  1  0  0  0
M  END
>  <CHROM.0>
120.89725740,65.85361655,-132.66210061,-112.05489267,-135.26218669,178.20007802

>  <CHROM.1>
-2.66940085,28.89655287,10.93060544,-3.10489538,-0.80349972,2.92846983

>  <FORMUL>
      HMD    C11 H10 Br1 N5 O2

>  <HET>
 HMD  A 400      19

>  <HETNAM>
     HMD 4-(5-AMINO-4-OXO-4H-PYRAZOL-3-YL)-2-BROMO-4,5,6,7-TETRA
   2 HMD HYDRO-3AH-PYRROLO[2,3-C]AZEPIN-8-ONE

>  <HETSYN>
     HMD HYMENIALDISINE

>  <Name>
HMD.pdb

>  <RI>
0

>  <Rbt.Current_Directory>
/home/malgorzata/Desktop/rDOCK_IFD/Wyniki/2_CDK2/IFD

>  <Rbt.Executable>
rbdock ($Id: //depot/dev/client3/rdock/2013.1/src/exe/rbdock.cxx#4 $)

>  <Rbt.Library>
libRbt.so (2013.1, Build901 2013/11/27)

>  <Rbt.Parameter_File>
/home/malgorzata/Desktop/rDock_2013.1_src/data/scripts/dock.prm

>  <Rbt.Receptor>
cavity.prm

>  <SCORE>
-28.0275

>  <SCORE.INTER>
-22.8595

>  <SCORE.INTER.CONST>
1

>  <SCORE.INTER.POLAR>
-2.72867

>  <SCORE.INTER.REPUL>
0.000992627

>  <SCORE.INTER.ROT>
0

>  <SCORE.INTER.VDW>
-18.987

>  <SCORE.INTER.norm>
-1.20313

>  <SCORE.INTRA>
0

>  <SCORE.INTRA.DIHEDRAL>
0

>  <SCORE.INTRA.DIHEDRAL.0>
0

>  <SCORE.INTRA.POLAR>
0

>  <SCORE.INTRA.POLAR.0>
0

>  <SCORE.INTRA.REPUL>
0

>  <SCORE.INTRA.REPUL.0>
0

>  <SCORE.INTRA.VDW>
0

>  <SCORE.INTRA.VDW.0>
0

>  <SCORE.INTRA.norm>
0

>  <SCORE.RESTR>
0

>  <SCORE.RESTR.CAVITY>
0

>  <SCORE.RESTR.norm>
0

>  <SCORE.SYSTEM>
-5.16801

>  <SCORE.SYSTEM.CONST>
0

>  <SCORE.SYSTEM.DIHEDRAL>
4.84079

>  <SCORE.SYSTEM.POLAR>
-1.75029

>  <SCORE.SYSTEM.VDW>
-1.63743

>  <SCORE.SYSTEM.norm>
-0.272001

>  <SCORE.heavy>
19

>  <SCORE.norm>
-1.47513

$$$$
HMD.pdb
  rDOCK(R)          3D
libRbt.so/2013.1/901 2013/11/27
 24 26  0  0  0  0  0  0  0  0999 V2000
    0.7210   24.9801    7.8069 Br  0  0  0  0  0  0
    2.1928   29.7271    5.8129 O   0  0  0  0  0  0
   -2.6578   32.1684   10.7365 O   0  0  0  0  0  0
    1.2122   27.6476    7.2401 N   0  0  0  0  0  0
    1.5528   31.2802    7.3695 N   0  0  0  0  0  0
   -3.4023   30.3040   11.8591 N   0  0  0  0  0  0
   -2.3069   28.7175   10.7079 N   0  0  0  0  0  0
   -3.6723   28.0430   12.4649 N   0  0  0  0  0  0
    0.4352   26.8054    7.9246 C   0  0  0  0  0  0
   -0.5014   27.4786    8.6525 C   0  0  0  0  0  0
   -0.2784   28.8603    8.4079 C   0  0  0  0  0  0
    0.8207   28.9146    7.4962 C   0  0  0  0  0  0
    1.5635   30.0014    6.8433 C   0  0  0  0  0  0
    0.8598   31.7673    8.5745 C   0  0  0  0  0  0
   -0.6308   31.4800    8.5711 C   0  0  0  0  0  0
   -0.9698   30.0773    9.0676 C   0  0  0  0  0  0
   -1.8854   29.9162   10.1131 C   0  0  0  0  0  0
   -2.6740   30.9400   10.9106 C   0  0  0  0  0  0
   -3.1532   28.9970   11.7162 C   0  0  0  0  0  0
    1.9516   27.3872    6.6446 H   0  0  0  0  0  0
    2.0759   31.9517    6.8749 H   0  0  0  0  0  0
   -2.0278   27.8148   10.4314 H   0  0  0  0  0  0
   -4.2893   28.2725   13.1970 H   0  0  0  0  0  0
   -3.4429   27.1014   12.2915 H   0  0  0  0  0  0
  1  9  1  0  0  0
  2 13  2  0  0  0
  3 18  2  0  0  0
  4  9  1  0  0  0
  4 12  1  0  0  0
  4 20  1  0  0  0
  5 13  1  0  0  0
  5 14  1  0  0  0
  5 21  1  0  0  0
  6 18  1  0  0  0
  6 19  2  0  0  0
  7 17  1  0  0  0
  7 19  1  0  0  0
  7 22  1  0  0  0
  8 19  1  0  0  0
  8 23  1  0  0  0
  8 24  1  0  0  0
  9 10  2  0  0  0
 10 11  1  0  0  0
 11 12  2  0  0  0
 11 16  1  0  0  0
 12 13  1  0  0  0
 14 15  1  0  0  0
 15 16  1  0  0  0
 16 17  2  0  0  0
 17 18  1  0  0  0
M  END
>  <CHROM.0>
-81.91601836,-122.43352707,-40.29530067,-118.03759387,-136.10224016,179.64829839

>  <CHROM.1>
-0.38676453,28.49558361,8.81549137,0.72293149,-0.78529894,3.12854249

>  <FORMUL>
      HMD    C11 H10 Br1 N5 O2

>  <HET>
 HMD  A 400      19

>  <HETNAM>
     HMD 4-(5-AMINO-4-OXO-4H-PYRAZOL-3-YL)-2-BROMO-4,5,6,7-TETRA
   2 HMD HYDRO-3AH-PYRROLO[2,3-C]AZEPIN-8-ONE

>  <HETSYN>
     HMD HYMENIALDISINE

>  <Name>
HMD.pdb

>  <RI>
0

>  <Rbt.Current_Directory>
/home/malgorzata/Desktop/rDOCK_IFD/Wyniki/2_CDK2/IFD

>  <Rbt.Executable>
rbdock ($Id: //depot/dev/client3/rdock/2013.1/src/exe/rbdock.cxx#4 $)

>  <Rbt.Library>
libRbt.so (2013.1, Build901 2013/11/27)

>  <Rbt.Parameter_File>
/home/malgorzata/Desktop/rDock_2013.1_src/data/scripts/dock.prm

>  <Rbt.Receptor>
cavity.prm

>  <SCORE>
-20.883

>  <SCORE.INTER>
-16.8303

>  <SCORE.INTER.CONST>
1

>  <SCORE.INTER.POLAR>
-1.30704

>  <SCORE.INTER.REPUL>
0

>  <SCORE.INTER.ROT>
0

>  <SCORE.INTER.VDW>
-17.7864

>  <SCORE.INTER.norm>
-0.885806

>  <SCORE.INTRA>
0

>  <SCORE.INTRA.DIHEDRAL>
0

>  <SCORE.INTRA.DIHEDRAL.0>
0

>  <SCORE.INTRA.POLAR>
0

>  <SCORE.INTRA.POLAR.0>
0

>  <SCORE.INTRA.REPUL>
0

>  <SCORE.INTRA.REPUL.0>
0

>  <SCORE.INTRA.VDW>
0

>  <SCORE.INTRA.VDW.0>
0

>  <SCORE.INTRA.norm>
0

>  <SCORE.RESTR>
0

>  <SCORE.RESTR.CAVITY>
0

>  <SCORE.RESTR.norm>
0

>  <SCORE.SYSTEM>
-4.0527

>  <SCORE.SYSTEM.CONST>
0

>  <SCORE.SYSTEM.DIHEDRAL>
2.48374

>  <SCORE.SYSTEM.POLAR>
-1.28374

>  <SCORE.SYSTEM.REPUL>
0.0179459

>  <SCORE.SYSTEM.VDW>
-1.01959

>  <SCORE.SYSTEM.norm>
-0.2133

>  <SCORE.heavy>
19

>  <SCORE.norm>
-1.09911

$$$$
HMD.pdb
  rDOCK(R)          3D
libRbt.so/2013.1/901 2013/11/27
 24 26  0  0  0  0  0  0  0  0999 V2000
    1.9588   24.9345    7.5915 Br  0  0  0  0  0  0
    2.0947   30.0648    6.0622 O   0  0  0  0  0  0
   -3.8926   30.4329   10.2749 O   0  0  0  0  0  0
    1.6460   27.6635    7.2264 N   0  0  0  0  0  0
    0.7915   31.1965    7.5674 N   0  0  0  0  0  0
   -4.1476   28.3358   11.1846 N   0  0  0  0  0  0
   -2.4606   27.2760   10.1488 N   0  0  0  0  0  0
   -3.7619   26.0565   11.6407 N   0  0  0  0  0  0
    1.0936   26.5641    7.7438 C   0  0  0  0  0  0
   -0.0971   26.8466    8.3464 C   0  0  0  0  0  0
   -0.2951   28.2460    8.2007 C   0  0  0  0  0  0
    0.8409   28.7191    7.4741 C   0  0  0  0  0  0
    1.2791   30.0367    6.9933 C   0  0  0  0  0  0
   -0.1749   31.3344    8.6703 C   0  0  0  0  0  0
   -1.4818   30.6030    8.4226 C   0  0  0  0  0  0
   -1.4196   29.1252    8.7980 C   0  0  0  0  0  0
   -2.3673   28.5952    9.6803 C   0  0  0  0  0  0
   -3.5399   29.2489   10.3899 C   0  0  0  0  0  0
   -3.4785   27.1881   11.0247 C   0  0  0  0  0  0
    2.5023   27.6991    6.7421 H   0  0  0  0  0  0
    1.1347   32.0386    7.1902 H   0  0  0  0  0  0
   -1.8743   26.5325    9.8794 H   0  0  0  0  0  0
   -4.5118   26.0170   12.2774 H   0  0  0  0  0  0
   -3.2235   25.2515   11.4636 H   0  0  0  0  0  0
  1  9  1  0  0  0
  2 13  2  0  0  0
  3 18  2  0  0  0
  4  9  1  0  0  0
  4 12  1  0  0  0
  4 20  1  0  0  0
  5 13  1  0  0  0
  5 14  1  0  0  0
  5 21  1  0  0  0
  6 18  1  0  0  0
  6 19  2  0  0  0
  7 17  1  0  0  0
  7 19  1  0  0  0
  7 22  1  0  0  0
  8 19  1  0  0  0
  8 23  1  0  0  0
  8 24  1  0  0  0
  9 10  2  0  0  0
 10 11  1  0  0  0
 11 12  2  0  0  0
 11 16  1  0  0  0
 12 13  1  0  0  0
 14 15  1  0  0  0
 15 16  1  0  0  0
 16 17  2  0  0  0
 17 18  1  0  0  0
M  END
>  <CHROM.0>
-79.58066212,65.76366904,-52.76152764,-116.67030107,84.59721032,97.31334544

>  <CHROM.1>
-0.33508569,27.83009806,8.56992908,0.32861552,-0.60182795,2.94321111

>  <FORMUL>
      HMD    C11 H10 Br1 N5 O2

>  <HET>
 HMD  A 400      19

>  <HETNAM>
     HMD 4-(5-AMINO-4-OXO-4H-PYRAZOL-3-YL)-2-BROMO-4,5,6,7-TETRA
   2 HMD HYDRO-3AH-PYRROLO[2,3-C]AZEPIN-8-ONE

>  <HETSYN>
     HMD HYMENIALDISINE

>  <Name>
HMD.pdb

>  <RI>
0

>  <Rbt.Current_Directory>
/home/malgorzata/Desktop/rDOCK_IFD/Wyniki/2_CDK2/IFD

>  <Rbt.Executable>
rbdock ($Id: //depot/dev/client3/rdock/2013.1/src/exe/rbdock.cxx#4 $)

>  <Rbt.Library>
libRbt.so (2013.1, Build901 2013/11/27)

>  <Rbt.Parameter_File>
/home/malgorzata/Desktop/rDock_2013.1_src/data/scripts/dock.prm

>  <Rbt.Receptor>
cavity.prm

>  <SCORE>
-27.9241

>  <SCORE.INTER>
-20.6905

>  <SCORE.INTER.CONST>
1

>  <SCORE.INTER.POLAR>
-2.58469

>  <SCORE.INTER.REPUL>
0

>  <SCORE.INTER.ROT>
0

>  <SCORE.INTER.VDW>
-17.3025

>  <SCORE.INTER.norm>
-1.08897

>  <SCORE.INTRA>
0

>  <SCORE.INTRA.DIHEDRAL>
0

>  <SCORE.INTRA.DIHEDRAL.0>
0

>  <SCORE.INTRA.POLAR>
0

>  <SCORE.INTRA.POLAR.0>
0

>  <SCORE.INTRA.REPUL>
0

>  <SCORE.INTRA.REPUL.0>
0

>  <SCORE.INTRA.VDW>
0

>  <SCORE.INTRA.VDW.0>
0

>  <SCORE.INTRA.norm>
0

>  <SCORE.RESTR>
0

>  <SCORE.RESTR.CAVITY>
0

>  <SCORE.RESTR.norm>
0

>  <SCORE.SYSTEM>
-7.2336

>  <SCORE.SYSTEM.CONST>
0

>  <SCORE.SYSTEM.DIHEDRAL>
6.6721

>  <SCORE.SYSTEM.POLAR>
-2.25289

>  <SCORE.SYSTEM.REPUL>
0.0710042

>  <SCORE.SYSTEM.VDW>
-3.26484

>  <SCORE.SYSTEM.norm>
-0.380716

>  <SCORE.heavy>
19

>  <SCORE.norm>
-1.46969

$$$$
HMD.pdb
  rDOCK(R)          3D
libRbt.so/2013.1/901 2013/11/27
 24 26  0  0  0  0  0  0  0  0999 V2000
    3.3951   25.1091    9.8209 Br  0  0  0  0  0  0
    3.7225   21.7860   14.0073 O   0  0  0  0  0  0
   -3.2534   23.8489   14.9083 O   0  0  0  0  0  0
    2.9884   23.4353   11.9915 N   0  0  0  0  0  0
    1.5607   21.2861   14.5743 N   0  0  0  0  0  0
   -3.7282   25.2394   13.1387 N   0  0  0  0  0  0
   -1.7053   25.3042   12.1664 N   0  0  0  0  0  0
   -3.4285   26.5137   11.1794 N   0  0  0  0  0  0
    2.4517   24.4074   11.2509 C   0  0  0  0  0  0
    1.2073   24.7400   11.6996 C   0  0  0  0  0  0
    0.9438   23.8916   12.8084 C   0  0  0  0  0  0
    2.1127   23.0832   12.9574 C   0  0  0  0  0  0
    2.5117   22.0110   13.8796 C   0  0  0  0  0  0
    0.0952   21.4286   14.5368 C   0  0  0  0  0  0
   -0.3824   22.8365   14.8435 C   0  0  0  0  0  0
   -0.3644   23.7524   13.6230 C   0  0  0  0  0  0
   -1.5274   24.4378   13.2554 C   0  0  0  0  0  0
   -2.9106   24.4562   13.8820 C   0  0  0  0  0  0
   -2.9867   25.7137   12.1308 C   0  0  0  0  0  0
    3.8792   23.0389   11.8554 H   0  0  0  0  0  0
    1.9081   20.5843   15.1710 H   0  0  0  0  0  0
   -1.0037   25.5704   11.5291 H   0  0  0  0  0  0
   -4.3706   26.7997   11.1749 H   0  0  0  0  0  0
   -2.8162   26.8247   10.4741 H   0  0  0  0  0  0
  1  9  1  0  0  0
  2 13  2  0  0  0
  3 18  2  0  0  0
  4  9  1  0  0  0
  4 12  1  0  0  0
  4 20  1  0  0  0
  5 13  1  0  0  0
  5 14  1  0  0  0
  5 21  1  0  0  0
  6 18  1  0  0  0
  6 19  2  0  0  0
  7 17  1  0  0  0
  7 19  1  0  0  0
  7 22  1  0  0  0
  8 19  1  0  0  0
  8 23  1  0  0  0
  8 24  1  0  0  0
  9 10  2  0  0  0
 10 11  1  0  0  0
 11 12  2  0  0  0
 11 16  1  0  0  0
 12 13  1  0  0  0
 14 15  1  0  0  0
 15 16  1  0  0  0
 16 17  2  0  0  0
 17 18  1  0  0  0
M  END
>  <CHROM.0>
-81.49303456,65.60558193,-52.37368153,-77.39750120,154.31685412,61.99106684

>  <CHROM.1>
0.71084561,24.10124628,12.34725858,0.30075152,0.30893622,-0.85546336

>  <FORMUL>
      HMD    C11 H10 Br1 N5 O2

>  <HET>
 HMD  A 400      19

>  <HETNAM>
     HMD 4-(5-AMINO-4-OXO-4H-PYRAZOL-3-YL)-2-BROMO-4,5,6,7-TETRA
   2 HMD HYDRO-3AH-PYRROLO[2,3-C]AZEPIN-8-ONE

>  <HETSYN>
     HMD HYMENIALDISINE

>  <Name>
HMD.pdb

>  <RI>
0

>  <Rbt.Current_Directory>
/home/malgorzata/Desktop/rDOCK_IFD/Wyniki/2_CDK2/IFD

>  <Rbt.Executable>
rbdock ($Id: //depot/dev/client3/rdock/2013.1/src/exe/rbdock.cxx#4 $)

>  <Rbt.Library>
libRbt.so (2013.1, Build901 2013/11/27)

>  <Rbt.Parameter_File>
/home/malgorzata/Desktop/rDock_2013.1_src/data/scripts/dock.prm

>  <Rbt.Receptor>
cavity.prm

>  <SCORE>
-28.6563

>  <SCORE.INTER>
-21.7618

>  <SCORE.INTER.CONST>
1

>  <SCORE.INTER.POLAR>
-3.22535

>  <SCORE.INTER.REPUL>
0

>  <SCORE.INTER.ROT>
0

>  <SCORE.INTER.VDW>
-16.1957

>  <SCORE.INTER.norm>
-1.14536

>  <SCORE.INTRA>
0

>  <SCORE.INTRA.DIHEDRAL>
0

>  <SCORE.INTRA.DIHEDRAL.0>
0

>  <SCORE.INTRA.POLAR>
0

>  <SCORE.INTRA.POLAR.0>
0

>  <SCORE.INTRA.REPUL>
0

>  <SCORE.INTRA.REPUL.0>
0

>  <SCORE.INTRA.VDW>
0

>  <SCORE.INTRA.VDW.0>
0

>  <SCORE.INTRA.norm>
0

>  <SCORE.RESTR>
0

>  <SCORE.RESTR.CAVITY>
0

>  <SCORE.RESTR.norm>
0

>  <SCORE.SYSTEM>
-6.89444

>  <SCORE.SYSTEM.CONST>
0

>  <SCORE.SYSTEM.DIHEDRAL>
1.76759

>  <SCORE.SYSTEM.POLAR>
-1.66583

>  <SCORE.SYSTEM.REPUL>
0.0696346

>  <SCORE.SYSTEM.VDW>
-2.46257

>  <SCORE.SYSTEM.norm>
-0.362865

>  <SCORE.heavy>
19

>  <SCORE.norm>
-1.50823

$$$$
