BRL.pdb
  rDOCK(R)          3D
libRbt.so/2013.1/901 2013/11/27
 26 28  0  0  0  0  0  0  0  0999 V2000
   11.0570   -3.1005   12.2460 S   0  0  0  0  0  0
    8.8486   -4.4807   11.6446 O   0  0  0  0  0  0
   12.0453   -4.0323    8.5480 O   0  0  0  0  0  0
   14.9748   -9.3633   10.8765 O   0  0  0  0  0  0
   10.3326   -4.4009    9.9960 N   0  0  0  0  0  0
   12.3234  -12.1155   10.9245 N   0  0  0  0  0  0
   10.4608  -11.1187    9.3955 N   0  0  0  0  0  0
    9.9356   -4.0906   11.2203 C   0  0  0  0  0  0
   11.5421   -3.9187    9.6779 C   0  0  0  0  0  0
   12.2386   -3.1702   10.8231 C   0  0  0  0  0  0
   13.6706   -3.7302   11.2174 C   0  0  0  0  0  0
   13.9308   -5.2159   11.0664 C   0  0  0  0  0  0
   14.8729   -5.7545   10.0922 C   0  0  0  0  0  0
   15.1595   -7.1525   10.0871 C   0  0  0  0  0  0
   14.5157   -8.0435   11.0261 C   0  0  0  0  0  0
   13.5104   -7.4989   11.9435 C   0  0  0  0  0  0
   13.2229   -6.0975   11.9665 C   0  0  0  0  0  0
   14.3786  -10.5594   10.2594 C   0  0  0  0  0  0
   13.1676  -10.8644   11.1660 C   0  0  0  0  0  0
   13.0234  -13.3030   11.6015 C   0  0  0  0  0  0
   11.0186  -12.2288   10.0155 C   0  0  0  0  0  0
    9.3662  -11.1533    8.5894 C   0  0  0  0  0  0
    8.6861  -12.4024    8.3238 C   0  0  0  0  0  0
    9.1872  -13.6003    8.9273 C   0  0  0  0  0  0
   10.3457  -13.5225    9.7721 C   0  0  0  0  0  0
    9.7886   -4.9375    9.3753 H   0  0  0  0  0  0
  1  8  1  0  0  0
  1 10  1  0  0  0
  2  8  2  0  0  0
  3  9  2  0  0  0
  4 15  1  0  0  0
  4 18  1  0  0  0
  5  8  1  0  0  0
  5  9  1  0  0  0
  5 26  1  0  0  0
  6 19  1  0  0  0
  6 20  1  0  0  0
  6 21  1  0  0  0
  7 21  2  0  0  0
  7 22  1  0  0  0
  9 10  1  0  0  0
 10 11  1  0  0  0
 11 12  1  0  0  0
 12 13  2  0  0  0
 12 17  1  0  0  0
 13 14  1  0  0  0
 14 15  2  0  0  0
 15 16  1  0  0  0
 16 17  2  0  0  0
 18 19  1  0  0  0
 21 25  1  0  0  0
 22 23  2  0  0  0
 23 24  1  0  0  0
 24 25  2  0  0  0
M  END
>  <CHROM.0>
143.02829571,-170.87140840,58.73962138,-163.65386618,105.32393303

>  <CHROM.1>
-103.71918576,-66.15196425,82.84634647,-4.18911458,92.38467107,113.09245619
-175.46261093,12.01840004,-7.77429832,10.55115535,1.49417093,-0.21124541
0.11542316

>  <FORMUL>
      BRL    C18 H19 N3 O3 S1

>  <HET>
 BRL  A   1      25

>  <HETNAM>
     BRL 2,4-THIAZOLIDIINEDIONE, 5-[[4-[2-(METHYL-2-PYRIDINYLAMI
   2 BRL NO)ETHOXY]PHENYL]METHYL]-(9CL)

>  <HETSYN>
     BRL BRL49653; ROSIGLITAZONE

>  <Name>
BRL.pdb

>  <RI>
4.0656e+07

>  <Rbt.Current_Directory>
/home/malgorzata/Desktop/rDOCK_IFD/Wyniki/13_ppar-gamma

>  <Rbt.Executable>
rbdock ($Id: //depot/dev/client3/rdock/2013.1/src/exe/rbdock.cxx#4 $)

>  <Rbt.Library>
libRbt.so (2013.1, Build901 2013/11/27)

>  <Rbt.Parameter_File>
/home/malgorzata/Desktop/rDock_2013.1_src/data/scripts/soft_docking.prm

>  <Rbt.Receptor>
cavity.prm

>  <SCORE>
-20.2475

>  <SCORE.INTER>
-20.2359

>  <SCORE.INTER.CONST>
1

>  <SCORE.INTER.POLAR>
0

>  <SCORE.INTER.REPUL>
0.0357077

>  <SCORE.INTER.ROT>
7

>  <SCORE.INTER.VDW>
-32.8144

>  <SCORE.INTER.norm>
-0.809436

>  <SCORE.INTRA>
1.22932

>  <SCORE.INTRA.DIHEDRAL>
5.69513

>  <SCORE.INTRA.DIHEDRAL.0>
5.55665

>  <SCORE.INTRA.POLAR>
0

>  <SCORE.INTRA.POLAR.0>
0

>  <SCORE.INTRA.REPUL>
0

>  <SCORE.INTRA.REPUL.0>
0

>  <SCORE.INTRA.VDW>
0.0902901

>  <SCORE.INTRA.VDW.0>
-2.56587

>  <SCORE.INTRA.norm>
0.0491727

>  <SCORE.RESTR>
0.0493402

>  <SCORE.RESTR.CAVITY>
0.0493402

>  <SCORE.RESTR.norm>
0.00197361

>  <SCORE.SYSTEM>
-1.2903

>  <SCORE.SYSTEM.CONST>
0

>  <SCORE.SYSTEM.DIHEDRAL>
5.66255

>  <SCORE.SYSTEM.POLAR>
-0.700919

>  <SCORE.SYSTEM.REPUL>
0.17871

>  <SCORE.SYSTEM.VDW>
-2.632

>  <SCORE.SYSTEM.norm>
-0.051612

>  <SCORE.heavy>
25

>  <SCORE.norm>
-0.809901

$$$$
BRL.pdb
  rDOCK(R)          3D
libRbt.so/2013.1/901 2013/11/27
 26 28  0  0  0  0  0  0  0  0999 V2000
   11.6922  -12.8116   11.7953 S   0  0  0  0  0  0
   12.6316  -15.1259   10.8437 O   0  0  0  0  0  0
   10.9316  -12.1296    7.9905 O   0  0  0  0  0  0
   16.9295   -9.3891   13.0141 O   0  0  0  0  0  0
   11.8656  -13.7561    9.2742 N   0  0  0  0  0  0
   16.7133   -6.7588   11.8503 N   0  0  0  0  0  0
   15.4107   -5.1024   13.3867 N   0  0  0  0  0  0
   12.1145  -14.0514   10.5405 C   0  0  0  0  0  0
   11.3143  -12.5475    9.0958 C   0  0  0  0  0  0
   11.1539  -11.7357   10.3888 C   0  0  0  0  0  0
   11.8551  -10.3115   10.3781 C   0  0  0  0  0  0
   13.1574  -10.1430   11.1355 C   0  0  0  0  0  0
   14.3913  -10.8102   10.7366 C   0  0  0  0  0  0
   15.6073  -10.5114   11.4214 C   0  0  0  0  0  0
   15.6276   -9.5668   12.5156 C   0  0  0  0  0  0
   14.3647   -8.9675   12.9571 C   0  0  0  0  0  0
   13.1412   -9.2498   12.2713 C   0  0  0  0  0  0
   17.5454   -8.3307   13.8313 C   0  0  0  0  0  0
   17.8144   -7.2029   12.8129 C   0  0  0  0  0  0
   17.0091   -7.3670   10.4716 C   0  0  0  0  0  0
   15.5325   -5.7318   12.1551 C   0  0  0  0  0  0
   14.4433   -4.1996   13.7000 C   0  0  0  0  0  0
   13.4374   -3.8305   12.7278 C   0  0  0  0  0  0
   13.4799   -4.4353   11.4306 C   0  0  0  0  0  0
   14.5174   -5.3839   11.1381 C   0  0  0  0  0  0
   12.0672  -14.3690    8.5307 H   0  0  0  0  0  0
  1  8  1  0  0  0
  1 10  1  0  0  0
  2  8  2  0  0  0
  3  9  2  0  0  0
  4 15  1  0  0  0
  4 18  1  0  0  0
  5  8  1  0  0  0
  5  9  1  0  0  0
  5 26  1  0  0  0
  6 19  1  0  0  0
  6 20  1  0  0  0
  6 21  1  0  0  0
  7 21  2  0  0  0
  7 22  1  0  0  0
  9 10  1  0  0  0
 10 11  1  0  0  0
 11 12  1  0  0  0
 12 13  2  0  0  0
 12 17  1  0  0  0
 13 14  1  0  0  0
 14 15  2  0  0  0
 15 16  1  0  0  0
 16 17  2  0  0  0
 18 19  1  0  0  0
 21 25  1  0  0  0
 22 23  2  0  0  0
 23 24  1  0  0  0
 24 25  2  0  0  0
M  END
>  <CHROM.0>
-109.22560648,48.95311008,175.78630652,-172.35148238,172.71111187

>  <CHROM.1>
161.10672708,-79.00405572,-102.66365533,1.06660058,20.76970633,66.82559401
48.38191505,14.00023228,-9.42457696,11.50561633,2.07727853,0.41172506,-3.04528275

>  <FORMUL>
      BRL    C18 H19 N3 O3 S1

>  <HET>
 BRL  A   1      25

>  <HETNAM>
     BRL 2,4-THIAZOLIDIINEDIONE, 5-[[4-[2-(METHYL-2-PYRIDINYLAMI
   2 BRL NO)ETHOXY]PHENYL]METHYL]-(9CL)

>  <HETSYN>
     BRL BRL49653; ROSIGLITAZONE

>  <Name>
BRL.pdb

>  <RI>
4.0656e+07

>  <Rbt.Current_Directory>
/home/malgorzata/Desktop/rDOCK_IFD/Wyniki/13_ppar-gamma

>  <Rbt.Executable>
rbdock ($Id: //depot/dev/client3/rdock/2013.1/src/exe/rbdock.cxx#4 $)

>  <Rbt.Library>
libRbt.so (2013.1, Build901 2013/11/27)

>  <Rbt.Parameter_File>
/home/malgorzata/Desktop/rDock_2013.1_src/data/scripts/soft_docking.prm

>  <Rbt.Receptor>
cavity.prm

>  <SCORE>
-26.079

>  <SCORE.INTER>
-23.4016

>  <SCORE.INTER.CONST>
1

>  <SCORE.INTER.POLAR>
-0.253188

>  <SCORE.INTER.REPUL>
0

>  <SCORE.INTER.ROT>
7

>  <SCORE.INTER.VDW>
-34.9408

>  <SCORE.INTER.norm>
-0.936065

>  <SCORE.INTRA>
-0.621119

>  <SCORE.INTRA.DIHEDRAL>
3.83971

>  <SCORE.INTRA.DIHEDRAL.0>
5.55665

>  <SCORE.INTRA.POLAR>
0

>  <SCORE.INTRA.POLAR.0>
0

>  <SCORE.INTRA.REPUL>
0

>  <SCORE.INTRA.REPUL.0>
0

>  <SCORE.INTRA.VDW>
-1.38906

>  <SCORE.INTRA.VDW.0>
-2.56587

>  <SCORE.INTRA.norm>
-0.0248448

>  <SCORE.RESTR>
0.437385

>  <SCORE.RESTR.CAVITY>
0.437385

>  <SCORE.RESTR.norm>
0.0174954

>  <SCORE.SYSTEM>
-2.49368

>  <SCORE.SYSTEM.CONST>
0

>  <SCORE.SYSTEM.DIHEDRAL>
1.23919

>  <SCORE.SYSTEM.POLAR>
-0.305912

>  <SCORE.SYSTEM.REPUL>
0.17871

>  <SCORE.SYSTEM.VDW>
-2.96673

>  <SCORE.SYSTEM.norm>
-0.0997473

>  <SCORE.heavy>
25

>  <SCORE.norm>
-1.04316

$$$$
BRL.pdb
  rDOCK(R)          3D
libRbt.so/2013.1/901 2013/11/27
 26 28  0  0  0  0  0  0  0  0999 V2000
   10.6704  -12.8359   10.4888 S   0  0  0  0  0  0
   11.6050  -14.4851    8.6045 O   0  0  0  0  0  0
    9.6089  -10.6776    7.3687 O   0  0  0  0  0  0
   16.3555   -9.4602   11.1217 O   0  0  0  0  0  0
   10.6839  -12.6335    7.7986 N   0  0  0  0  0  0
   16.7737   -6.6842   13.4603 N   0  0  0  0  0  0
   15.1085   -4.7150   13.8483 N   0  0  0  0  0  0
   11.0350  -13.4140    8.8087 C   0  0  0  0  0  0
   10.0851  -11.4946    8.1741 C   0  0  0  0  0  0
    9.9971  -11.3055    9.6950 C   0  0  0  0  0  0
   10.6528   -9.9680   10.2437 C   0  0  0  0  0  0
   12.1525   -9.9369   10.4627 C   0  0  0  0  0  0
   13.0985   -9.6569    9.3888 C   0  0  0  0  0  0
   14.4871   -9.5229    9.6899 C   0  0  0  0  0  0
   14.9690   -9.6765   11.0443 C   0  0  0  0  0  0
   14.0163  -10.0390   12.0978 C   0  0  0  0  0  0
   12.6202  -10.1645   11.8109 C   0  0  0  0  0  0
   17.1619   -8.2484   11.3414 C   0  0  0  0  0  0
   17.1077   -8.0546   12.8714 C   0  0  0  0  0  0
   17.6906   -6.4467   14.6691 C   0  0  0  0  0  0
   15.5929   -5.7116   13.0115 C   0  0  0  0  0  0
   14.1230   -3.8391   13.5158 C   0  0  0  0  0  0
   13.4903   -3.9007   12.2160 C   0  0  0  0  0  0
   13.9211   -4.9026   11.2881 C   0  0  0  0  0  0
   14.9649   -5.8089   11.6766 C   0  0  0  0  0  0
   10.8479  -12.8684    6.8568 H   0  0  0  0  0  0
  1  8  1  0  0  0
  1 10  1  0  0  0
  2  8  2  0  0  0
  3  9  2  0  0  0
  4 15  1  0  0  0
  4 18  1  0  0  0
  5  8  1  0  0  0
  5  9  1  0  0  0
  5 26  1  0  0  0
  6 19  1  0  0  0
  6 20  1  0  0  0
  6 21  1  0  0  0
  7 21  2  0  0  0
  7 22  1  0  0  0
  9 10  1  0  0  0
 10 11  1  0  0  0
 11 12  1  0  0  0
 12 13  2  0  0  0
 12 17  1  0  0  0
 13 14  1  0  0  0
 14 15  2  0  0  0
 15 16  1  0  0  0
 16 17  2  0  0  0
 18 19  1  0  0  0
 21 25  1  0  0  0
 22 23  2  0  0  0
 23 24  1  0  0  0
 24 25  2  0  0  0
M  END
>  <CHROM.0>
-115.79454709,-104.81184769,169.58135224,33.50890062,172.57648713

>  <CHROM.1>
89.08492609,80.57968443,-139.24273764,159.24661071,42.55338960,83.68655281
-131.67510442,13.38668491,-9.18779568,10.94128653,-2.21927618,-0.41174357
0.25989755

>  <FORMUL>
      BRL    C18 H19 N3 O3 S1

>  <HET>
 BRL  A   1      25

>  <HETNAM>
     BRL 2,4-THIAZOLIDIINEDIONE, 5-[[4-[2-(METHYL-2-PYRIDINYLAMI
   2 BRL NO)ETHOXY]PHENYL]METHYL]-(9CL)

>  <HETSYN>
     BRL BRL49653; ROSIGLITAZONE

>  <Name>
BRL.pdb

>  <RI>
4.0656e+07

>  <Rbt.Current_Directory>
/home/malgorzata/Desktop/rDOCK_IFD/Wyniki/13_ppar-gamma

>  <Rbt.Executable>
rbdock ($Id: //depot/dev/client3/rdock/2013.1/src/exe/rbdock.cxx#4 $)

>  <Rbt.Library>
libRbt.so (2013.1, Build901 2013/11/27)

>  <Rbt.Parameter_File>
/home/malgorzata/Desktop/rDock_2013.1_src/data/scripts/soft_docking.prm

>  <Rbt.Receptor>
cavity.prm

>  <SCORE>
-32.1126

>  <SCORE.INTER>
-35.6859

>  <SCORE.INTER.CONST>
1

>  <SCORE.INTER.POLAR>
-1.64441

>  <SCORE.INTER.REPUL>
0

>  <SCORE.INTER.ROT>
7

>  <SCORE.INTER.VDW>
-42.4949

>  <SCORE.INTER.norm>
-1.42744

>  <SCORE.INTRA>
1.57016

>  <SCORE.INTRA.DIHEDRAL>
11.7934

>  <SCORE.INTRA.DIHEDRAL.0>
5.55665

>  <SCORE.INTRA.POLAR>
0

>  <SCORE.INTRA.POLAR.0>
0

>  <SCORE.INTRA.REPUL>
0

>  <SCORE.INTRA.REPUL.0>
0

>  <SCORE.INTRA.VDW>
-0.788522

>  <SCORE.INTRA.VDW.0>
-2.56587

>  <SCORE.INTRA.norm>
0.0628064

>  <SCORE.RESTR>
0.634004

>  <SCORE.RESTR.CAVITY>
0.634004

>  <SCORE.RESTR.norm>
0.0253601

>  <SCORE.SYSTEM>
1.36912

>  <SCORE.SYSTEM.CONST>
0

>  <SCORE.SYSTEM.DIHEDRAL>
8.61372

>  <SCORE.SYSTEM.POLAR>
-0.306843

>  <SCORE.SYSTEM.REPUL>
0.17871

>  <SCORE.SYSTEM.VDW>
-2.78802

>  <SCORE.SYSTEM.norm>
0.054765

>  <SCORE.heavy>
25

>  <SCORE.norm>
-1.2845

$$$$
BRL.pdb
  rDOCK(R)          3D
libRbt.so/2013.1/901 2013/11/27
 26 28  0  0  0  0  0  0  0  0999 V2000
    7.9545  -12.5332    8.5965 S   0  0  0  0  0  0
    9.0460  -14.5447    7.2156 O   0  0  0  0  0  0
   11.7015  -11.3477    8.8699 O   0  0  0  0  0  0
   13.8621   -8.5515   13.0584 O   0  0  0  0  0  0
   10.5249  -13.0802    7.9867 N   0  0  0  0  0  0
   15.2184   -5.6844   12.8342 N   0  0  0  0  0  0
   12.6336   -5.9694   13.0305 N   0  0  0  0  0  0
    9.2814  -13.5088    7.8365 C   0  0  0  0  0  0
   10.6279  -11.9479    8.6964 C   0  0  0  0  0  0
    9.2909  -11.4277    9.2427 C   0  0  0  0  0  0
    9.2410  -11.2294   10.8169 C   0  0  0  0  0  0
   10.4166  -10.5555   11.4966 C   0  0  0  0  0  0
   11.7078  -11.2113   11.6679 C   0  0  0  0  0  0
   12.8059  -10.4760   12.2065 C   0  0  0  0  0  0
   12.6496   -9.0932   12.5985 C   0  0  0  0  0  0
   11.3248   -8.4739   12.4965 C   0  0  0  0  0  0
   10.2190   -9.1968   11.9472 C   0  0  0  0  0  0
   15.1564   -8.3102   12.3999 C   0  0  0  0  0  0
   15.7220   -7.0908   13.1578 C   0  0  0  0  0  0
   16.3954   -4.7091   12.9817 C   0  0  0  0  0  0
   13.7136   -5.2524   12.5330 C   0  0  0  0  0  0
   11.3297   -5.6390   12.8309 C   0  0  0  0  0  0
   10.9764   -4.4734   12.0499 C   0  0  0  0  0  0
   12.0261   -3.6762   11.4904 C   0  0  0  0  0  0
   13.3905   -4.0579   11.7240 C   0  0  0  0  0  0
   11.3038  -13.5508    7.6111 H   0  0  0  0  0  0
  1  8  1  0  0  0
  1 10  1  0  0  0
  2  8  2  0  0  0
  3  9  2  0  0  0
  4 15  1  0  0  0
  4 18  1  0  0  0
  5  8  1  0  0  0
  5  9  1  0  0  0
  5 26  1  0  0  0
  6 19  1  0  0  0
  6 20  1  0  0  0
  6 21  1  0  0  0
  7 21  2  0  0  0
  7 22  1  0  0  0
  9 10  1  0  0  0
 10 11  1  0  0  0
 11 12  1  0  0  0
 12 13  2  0  0  0
 12 17  1  0  0  0
 13 14  1  0  0  0
 14 15  2  0  0  0
 15 16  1  0  0  0
 16 17  2  0  0  0
 18 19  1  0  0  0
 21 25  1  0  0  0
 22 23  2  0  0  0
 23 24  1  0  0  0
 24 25  2  0  0  0
M  END
>  <CHROM.0>
166.83520339,-177.52554068,148.11687875,3.84962685,-176.30497285

>  <CHROM.1>
63.59157447,150.57422374,-145.05343761,26.05568786,169.20015411,-72.38079357
-78.98125654,11.72184307,-9.10873253,11.03203685,2.11692919,0.34124412,-2.82586781

>  <FORMUL>
      BRL    C18 H19 N3 O3 S1

>  <HET>
 BRL  A   1      25

>  <HETNAM>
     BRL 2,4-THIAZOLIDIINEDIONE, 5-[[4-[2-(METHYL-2-PYRIDINYLAMI
   2 BRL NO)ETHOXY]PHENYL]METHYL]-(9CL)

>  <HETSYN>
     BRL BRL49653; ROSIGLITAZONE

>  <Name>
BRL.pdb

>  <RI>
4.0656e+07

>  <Rbt.Current_Directory>
/home/malgorzata/Desktop/rDOCK_IFD/Wyniki/13_ppar-gamma

>  <Rbt.Executable>
rbdock ($Id: //depot/dev/client3/rdock/2013.1/src/exe/rbdock.cxx#4 $)

>  <Rbt.Library>
libRbt.so (2013.1, Build901 2013/11/27)

>  <Rbt.Parameter_File>
/home/malgorzata/Desktop/rDock_2013.1_src/data/scripts/soft_docking.prm

>  <Rbt.Receptor>
cavity.prm

>  <SCORE>
-29.114

>  <SCORE.INTER>
-30.7315

>  <SCORE.INTER.CONST>
1

>  <SCORE.INTER.POLAR>
-0.743031

>  <SCORE.INTER.REPUL>
0

>  <SCORE.INTER.ROT>
7

>  <SCORE.INTER.VDW>
-40.6052

>  <SCORE.INTER.norm>
-1.22926

>  <SCORE.INTRA>
2.32316

>  <SCORE.INTRA.DIHEDRAL>
9.89752

>  <SCORE.INTRA.DIHEDRAL.0>
5.55665

>  <SCORE.INTRA.POLAR>
0

>  <SCORE.INTRA.POLAR.0>
0

>  <SCORE.INTRA.REPUL>
0

>  <SCORE.INTRA.REPUL.0>
0

>  <SCORE.INTRA.VDW>
0.343656

>  <SCORE.INTRA.VDW.0>
-2.56587

>  <SCORE.INTRA.norm>
0.0929264

>  <SCORE.RESTR>
0

>  <SCORE.RESTR.CAVITY>
0

>  <SCORE.RESTR.norm>
0

>  <SCORE.SYSTEM>
-0.705662

>  <SCORE.SYSTEM.CONST>
0

>  <SCORE.SYSTEM.DIHEDRAL>
4.43729

>  <SCORE.SYSTEM.POLAR>
-0.294136

>  <SCORE.SYSTEM.REPUL>
0.17871

>  <SCORE.SYSTEM.VDW>
-2.8178

>  <SCORE.SYSTEM.norm>
-0.0282265

>  <SCORE.heavy>
25

>  <SCORE.norm>
-1.16456

$$$$
BRL.pdb
  rDOCK(R)          3D
libRbt.so/2013.1/901 2013/11/27
 26 28  0  0  0  0  0  0  0  0999 V2000
   14.6693   -7.4382   13.8659 S   0  0  0  0  0  0
   12.9733   -5.4044   13.5033 O   0  0  0  0  0  0
   16.8987   -5.3731   11.3589 O   0  0  0  0  0  0
   11.6605  -11.0369    9.7974 O   0  0  0  0  0  0
   14.8479   -5.2288   12.3280 N   0  0  0  0  0  0
    8.8149  -10.3446   10.5071 N   0  0  0  0  0  0
   10.7047   -8.5711   10.7968 N   0  0  0  0  0  0
   14.0706   -5.8648   13.1906 C   0  0  0  0  0  0
   16.0050   -5.8558   12.0738 C   0  0  0  0  0  0
   16.1519   -7.2100   12.7817 C   0  0  0  0  0  0
   16.4278   -8.4429   11.8206 C   0  0  0  0  0  0
   15.2404   -9.1970   11.2556 C   0  0  0  0  0  0
   14.4244  -10.0974   12.0618 C   0  0  0  0  0  0
   13.2498  -10.6797   11.4978 C   0  0  0  0  0  0
   12.8676  -10.3995   10.1319 C   0  0  0  0  0  0
   13.7428   -9.5583    9.3101 C   0  0  0  0  0  0
   14.9165   -8.9593    9.8674 C   0  0  0  0  0  0
   10.7033  -10.8384    8.6967 C   0  0  0  0  0  0
    9.3424  -11.1787    9.3399 C   0  0  0  0  0  0
    7.3175  -10.6436   10.6705 C   0  0  0  0  0  0
    9.6166   -9.2440   11.3363 C   0  0  0  0  0  0
   11.4130   -7.6061   11.4420 C   0  0  0  0  0  0
   11.0622   -7.2111   12.7889 C   0  0  0  0  0  0
    9.9562   -7.8570   13.4292 C   0  0  0  0  0  0
    9.2331   -8.8709   12.7146 C   0  0  0  0  0  0
   14.5985   -4.3727   11.9109 H   0  0  0  0  0  0
  1  8  1  0  0  0
  1 10  1  0  0  0
  2  8  2  0  0  0
  3  9  2  0  0  0
  4 15  1  0  0  0
  4 18  1  0  0  0
  5  8  1  0  0  0
  5  9  1  0  0  0
  5 26  1  0  0  0
  6 19  1  0  0  0
  6 20  1  0  0  0
  6 21  1  0  0  0
  7 21  2  0  0  0
  7 22  1  0  0  0
  9 10  1  0  0  0
 10 11  1  0  0  0
 11 12  1  0  0  0
 12 13  2  0  0  0
 12 17  1  0  0  0
 13 14  1  0  0  0
 14 15  2  0  0  0
 15 16  1  0  0  0
 16 17  2  0  0  0
 18 19  1  0  0  0
 21 25  1  0  0  0
 22 23  2  0  0  0
 23 24  1  0  0  0
 24 25  2  0  0  0
M  END
>  <CHROM.0>
-11.88370960,59.15330774,-30.83078113,-17.10769852,-18.80085508

>  <CHROM.1>
163.46963818,-146.97234275,164.20917161,24.46714571,35.12138792,-73.60208444
62.41506615,12.73817039,-8.45113658,11.57298334,0.60068814,0.13596405,0.70027707

>  <FORMUL>
      BRL    C18 H19 N3 O3 S1

>  <HET>
 BRL  A   1      25

>  <HETNAM>
     BRL 2,4-THIAZOLIDIINEDIONE, 5-[[4-[2-(METHYL-2-PYRIDINYLAMI
   2 BRL NO)ETHOXY]PHENYL]METHYL]-(9CL)

>  <HETSYN>
     BRL BRL49653; ROSIGLITAZONE

>  <Name>
BRL.pdb

>  <RI>
4.0656e+07

>  <Rbt.Current_Directory>
/home/malgorzata/Desktop/rDOCK_IFD/Wyniki/13_ppar-gamma

>  <Rbt.Executable>
rbdock ($Id: //depot/dev/client3/rdock/2013.1/src/exe/rbdock.cxx#4 $)

>  <Rbt.Library>
libRbt.so (2013.1, Build901 2013/11/27)

>  <Rbt.Parameter_File>
/home/malgorzata/Desktop/rDock_2013.1_src/data/scripts/soft_docking.prm

>  <Rbt.Receptor>
cavity.prm

>  <SCORE>
-27.2858

>  <SCORE.INTER>
-26.3672

>  <SCORE.INTER.CONST>
1

>  <SCORE.INTER.POLAR>
-0.0693092

>  <SCORE.INTER.REPUL>
0

>  <SCORE.INTER.ROT>
7

>  <SCORE.INTER.VDW>
-38.5315

>  <SCORE.INTER.norm>
-1.05469

>  <SCORE.INTRA>
-1.03392

>  <SCORE.INTRA.DIHEDRAL>
6.60818

>  <SCORE.INTRA.DIHEDRAL.0>
5.55665

>  <SCORE.INTRA.POLAR>
0

>  <SCORE.INTRA.POLAR.0>
0

>  <SCORE.INTRA.REPUL>
0

>  <SCORE.INTRA.REPUL.0>
0

>  <SCORE.INTRA.VDW>
-2.35555

>  <SCORE.INTRA.VDW.0>
-2.56587

>  <SCORE.INTRA.norm>
-0.0413567

>  <SCORE.RESTR>
0.31783

>  <SCORE.RESTR.CAVITY>
0.31783

>  <SCORE.RESTR.norm>
0.0127132

>  <SCORE.SYSTEM>
-0.202552

>  <SCORE.SYSTEM.CONST>
0

>  <SCORE.SYSTEM.DIHEDRAL>
4.72049

>  <SCORE.SYSTEM.POLAR>
-0.248493

>  <SCORE.SYSTEM.REPUL>
0.17871

>  <SCORE.SYSTEM.VDW>
-2.61147

>  <SCORE.SYSTEM.norm>
-0.00810206

>  <SCORE.heavy>
25

>  <SCORE.norm>
-1.09143

$$$$
BRL.pdb
  rDOCK(R)          3D
libRbt.so/2013.1/901 2013/11/27
 26 28  0  0  0  0  0  0  0  0999 V2000
   10.5886  -11.8764    9.5042 S   0  0  0  0  0  0
    9.4679  -13.6043   11.2077 O   0  0  0  0  0  0
   13.6211  -12.1466   12.0044 O   0  0  0  0  0  0
   17.3837   -7.3749   12.0330 O   0  0  0  0  0  0
   11.5130  -12.9689   11.7911 N   0  0  0  0  0  0
   16.2309   -4.9318   13.7607 N   0  0  0  0  0  0
   13.6276   -5.0651   13.6852 N   0  0  0  0  0  0
   10.4761  -12.9408   10.9685 C   0  0  0  0  0  0
   12.5319  -12.1865   11.4088 C   0  0  0  0  0  0
   12.2528  -11.3718   10.1379 C   0  0  0  0  0  0
   12.4186   -9.8012   10.2980 C   0  0  0  0  0  0
   13.7590   -9.2603   10.7550 C   0  0  0  0  0  0
   14.7589   -8.7480    9.8253 C   0  0  0  0  0  0
   15.9476   -8.1421   10.3319 C   0  0  0  0  0  0
   16.1793   -8.0438   11.7556 C   0  0  0  0  0  0
   15.2032   -8.6371   12.6744 C   0  0  0  0  0  0
   14.0021   -9.2366   12.1793 C   0  0  0  0  0  0
   17.9810   -6.8806   13.2844 C   0  0  0  0  0  0
   16.7700   -6.3292   14.0659 C   0  0  0  0  0  0
   17.2468   -3.9034   14.2791 C   0  0  0  0  0  0
   14.8062   -4.5692   13.1440 C   0  0  0  0  0  0
   12.3828   -4.7737   13.2220 C   0  0  0  0  0  0
   12.2064   -3.8962   12.0853 C   0  0  0  0  0  0
   13.3679   -3.3423   11.4572 C   0  0  0  0  0  0
   14.6651   -3.6737   11.9761 C   0  0  0  0  0  0
   11.5338  -13.5152   12.6098 H   0  0  0  0  0  0
  1  8  1  0  0  0
  1 10  1  0  0  0
  2  8  2  0  0  0
  3  9  2  0  0  0
  4 15  1  0  0  0
  4 18  1  0  0  0
  5  8  1  0  0  0
  5  9  1  0  0  0
  5 26  1  0  0  0
  6 19  1  0  0  0
  6 20  1  0  0  0
  6 21  1  0  0  0
  7 21  2  0  0  0
  7 22  1  0  0  0
  9 10  1  0  0  0
 10 11  1  0  0  0
 11 12  1  0  0  0
 12 13  2  0  0  0
 12 17  1  0  0  0
 13 14  1  0  0  0
 14 15  2  0  0  0
 15 16  1  0  0  0
 16 17  2  0  0  0
 18 19  1  0  0  0
 21 25  1  0  0  0
 22 23  2  0  0  0
 23 24  1  0  0  0
 24 25  2  0  0  0
M  END
>  <CHROM.0>
73.94217933,112.10655655,-66.12769373,-10.47716561,-14.89969485

>  <CHROM.1>
171.35234679,-38.78313872,-71.16312274,51.72961794,-177.50154421,97.62465109
-81.62497195,13.81379271,-8.38460556,11.81560995,2.10076370,0.23558981,-2.96841987

>  <FORMUL>
      BRL    C18 H19 N3 O3 S1

>  <HET>
 BRL  A   1      25

>  <HETNAM>
     BRL 2,4-THIAZOLIDIINEDIONE, 5-[[4-[2-(METHYL-2-PYRIDINYLAMI
   2 BRL NO)ETHOXY]PHENYL]METHYL]-(9CL)

>  <HETSYN>
     BRL BRL49653; ROSIGLITAZONE

>  <Name>
BRL.pdb

>  <RI>
4.0656e+07

>  <Rbt.Current_Directory>
/home/malgorzata/Desktop/rDOCK_IFD/Wyniki/13_ppar-gamma

>  <Rbt.Executable>
rbdock ($Id: //depot/dev/client3/rdock/2013.1/src/exe/rbdock.cxx#4 $)

>  <Rbt.Library>
libRbt.so (2013.1, Build901 2013/11/27)

>  <Rbt.Parameter_File>
/home/malgorzata/Desktop/rDock_2013.1_src/data/scripts/soft_docking.prm

>  <Rbt.Receptor>
cavity.prm

>  <SCORE>
-25.9562

>  <SCORE.INTER>
-29.5287

>  <SCORE.INTER.CONST>
1

>  <SCORE.INTER.POLAR>
-0.62842

>  <SCORE.INTER.REPUL>
0

>  <SCORE.INTER.ROT>
7

>  <SCORE.INTER.VDW>
-39.7921

>  <SCORE.INTER.norm>
-1.18115

>  <SCORE.INTRA>
2.57149

>  <SCORE.INTRA.DIHEDRAL>
9.65147

>  <SCORE.INTRA.DIHEDRAL.0>
5.55665

>  <SCORE.INTRA.POLAR>
0

>  <SCORE.INTRA.POLAR.0>
0

>  <SCORE.INTRA.REPUL>
0

>  <SCORE.INTRA.REPUL.0>
0

>  <SCORE.INTRA.VDW>
0.641193

>  <SCORE.INTRA.VDW.0>
-2.56587

>  <SCORE.INTRA.norm>
0.102859

>  <SCORE.RESTR>
0.195701

>  <SCORE.RESTR.CAVITY>
0.195701

>  <SCORE.RESTR.norm>
0.00782803

>  <SCORE.SYSTEM>
0.80533

>  <SCORE.SYSTEM.CONST>
0

>  <SCORE.SYSTEM.DIHEDRAL>
7.92743

>  <SCORE.SYSTEM.POLAR>
-0.240167

>  <SCORE.SYSTEM.REPUL>
0.17871

>  <SCORE.SYSTEM.VDW>
-3.23537

>  <SCORE.SYSTEM.norm>
0.0322132

>  <SCORE.heavy>
25

>  <SCORE.norm>
-1.03825

$$$$
BRL.pdb
  rDOCK(R)          3D
libRbt.so/2013.1/901 2013/11/27
 26 28  0  0  0  0  0  0  0  0999 V2000
   14.6990   -6.1206   13.7999 S   0  0  0  0  0  0
   14.5161   -3.4653   14.0453 O   0  0  0  0  0  0
   18.5035   -5.3020   13.1874 O   0  0  0  0  0  0
   12.3849  -11.2596   10.6693 O   0  0  0  0  0  0
   16.5646   -4.1840   13.5833 N   0  0  0  0  0  0
    9.5063  -12.6423    8.8655 N   0  0  0  0  0  0
    7.7134  -10.7512    8.9655 N   0  0  0  0  0  0
   15.2819   -4.4032   13.8269 C   0  0  0  0  0  0
   17.2721   -5.2982   13.3501 C   0  0  0  0  0  0
   16.4325   -6.5834   13.3456 C   0  0  0  0  0  0
   16.5290   -7.4431   12.0147 C   0  0  0  0  0  0
   15.3769   -8.3647   11.6661 C   0  0  0  0  0  0
   15.0441   -8.7228   10.2922 C   0  0  0  0  0  0
   14.0250   -9.6903   10.0431 C   0  0  0  0  0  0
   13.3082  -10.3084   11.1360 C   0  0  0  0  0  0
   13.5979   -9.8768   12.5066 C   0  0  0  0  0  0
   14.6254   -8.9166   12.7701 C   0  0  0  0  0  0
   11.9200  -11.6145    9.3184 C   0  0  0  0  0  0
   10.8564  -12.7017    9.5797 C   0  0  0  0  0  0
    9.6893  -13.2061    7.4488 C   0  0  0  0  0  0
    8.1610  -11.9864    9.4148 C   0  0  0  0  0  0
    6.5641  -10.1509    9.3751 C   0  0  0  0  0  0
    5.7062  -10.7895   10.3495 C   0  0  0  0  0  0
    6.0919  -12.0646   10.8748 C   0  0  0  0  0  0
    7.3127  -12.6660   10.4169 C   0  0  0  0  0  0
   16.9629   -3.2837   13.5742 H   0  0  0  0  0  0
  1  8  1  0  0  0
  1 10  1  0  0  0
  2  8  2  0  0  0
  3  9  2  0  0  0
  4 15  1  0  0  0
  4 18  1  0  0  0
  5  8  1  0  0  0
  5  9  1  0  0  0
  5 26  1  0  0  0
  6 19  1  0  0  0
  6 20  1  0  0  0
  6 21  1  0  0  0
  7 21  2  0  0  0
  7 22  1  0  0  0
  9 10  1  0  0  0
 10 11  1  0  0  0
 11 12  1  0  0  0
 12 13  2  0  0  0
 12 17  1  0  0  0
 13 14  1  0  0  0
 14 15  2  0  0  0
 15 16  1  0  0  0
 16 17  2  0  0  0
 18 19  1  0  0  0
 21 25  1  0  0  0
 22 23  2  0  0  0
 23 24  1  0  0  0
 24 25  2  0  0  0
M  END
>  <CHROM.0>
116.69482742,62.07357232,-14.40641538,-63.77101717,105.98897085

>  <CHROM.1>
-8.13198314,-177.49203693,80.46058642,103.12639671,-30.82949521,151.74648986
133.76269262,12.62538092,-8.95208050,11.36753871,0.74674101,0.01483040,0.56059430

>  <FORMUL>
      BRL    C18 H19 N3 O3 S1

>  <HET>
 BRL  A   1      25

>  <HETNAM>
     BRL 2,4-THIAZOLIDIINEDIONE, 5-[[4-[2-(METHYL-2-PYRIDINYLAMI
   2 BRL NO)ETHOXY]PHENYL]METHYL]-(9CL)

>  <HETSYN>
     BRL BRL49653; ROSIGLITAZONE

>  <Name>
BRL.pdb

>  <RI>
4.0656e+07

>  <Rbt.Current_Directory>
/home/malgorzata/Desktop/rDOCK_IFD/Wyniki/13_ppar-gamma

>  <Rbt.Executable>
rbdock ($Id: //depot/dev/client3/rdock/2013.1/src/exe/rbdock.cxx#4 $)

>  <Rbt.Library>
libRbt.so (2013.1, Build901 2013/11/27)

>  <Rbt.Parameter_File>
/home/malgorzata/Desktop/rDock_2013.1_src/data/scripts/soft_docking.prm

>  <Rbt.Receptor>
cavity.prm

>  <SCORE>
-22.8683

>  <SCORE.INTER>
-32.1512

>  <SCORE.INTER.CONST>
1

>  <SCORE.INTER.POLAR>
-0.799897

>  <SCORE.INTER.REPUL>
0

>  <SCORE.INTER.ROT>
7

>  <SCORE.INTER.VDW>
-41.8315

>  <SCORE.INTER.norm>
-1.28605

>  <SCORE.INTRA>
5.88926

>  <SCORE.INTRA.DIHEDRAL>
17.2514

>  <SCORE.INTRA.DIHEDRAL.0>
5.55665

>  <SCORE.INTRA.POLAR>
0

>  <SCORE.INTRA.POLAR.0>
0

>  <SCORE.INTRA.REPUL>
0

>  <SCORE.INTRA.REPUL.0>
0

>  <SCORE.INTRA.VDW>
2.43898

>  <SCORE.INTRA.VDW.0>
-2.56587

>  <SCORE.INTRA.norm>
0.23557

>  <SCORE.RESTR>
0.288726

>  <SCORE.RESTR.CAVITY>
0.288726

>  <SCORE.RESTR.norm>
0.011549

>  <SCORE.SYSTEM>
3.10492

>  <SCORE.SYSTEM.CONST>
0

>  <SCORE.SYSTEM.DIHEDRAL>
14.8955

>  <SCORE.SYSTEM.POLAR>
-0.782077

>  <SCORE.SYSTEM.REPUL>
0.17871

>  <SCORE.SYSTEM.VDW>
-2.57731

>  <SCORE.SYSTEM.norm>
0.124197

>  <SCORE.heavy>
25

>  <SCORE.norm>
-0.914731

$$$$
BRL.pdb
  rDOCK(R)          3D
libRbt.so/2013.1/901 2013/11/27
 26 28  0  0  0  0  0  0  0  0999 V2000
   10.8695   -7.2079   -2.4128 S   0  0  0  0  0  0
    8.4243   -6.7001   -3.3652 O   0  0  0  0  0  0
    9.4462  -10.8685   -2.1046 O   0  0  0  0  0  0
    8.7188   -6.2945    3.8864 O   0  0  0  0  0  0
    8.7288   -8.8131   -2.7580 N   0  0  0  0  0  0
    8.3850   -5.0998    6.9437 N   0  0  0  0  0  0
    9.7682   -3.3385    5.6076 N   0  0  0  0  0  0
    9.1646   -7.5726   -2.9129 C   0  0  0  0  0  0
    9.6408   -9.6495   -2.2429 C   0  0  0  0  0  0
   10.9714   -8.9767   -1.8773 C   0  0  0  0  0  0
   11.4198   -9.1545   -0.3650 C   0  0  0  0  0  0
   10.6242   -8.4431    0.7116 C   0  0  0  0  0  0
   10.4294   -9.0019    2.0444 C   0  0  0  0  0  0
    9.7740   -8.2244    3.0458 C   0  0  0  0  0  0
    9.2876   -6.8954    2.7504 C   0  0  0  0  0  0
    9.4182   -6.3812    1.3839 C   0  0  0  0  0  0
   10.0837   -7.1460    0.3743 C   0  0  0  0  0  0
    7.8829   -6.8225    4.9771 C   0  0  0  0  0  0
    8.6650   -6.4321    6.2488 C   0  0  0  0  0  0
    7.0478   -5.2208    7.6891 C   0  0  0  0  0  0
    9.2372   -3.7581    6.8200 C   0  0  0  0  0  0
   10.4809   -2.1938    5.4318 C   0  0  0  0  0  0
   10.7434   -1.3107    6.5474 C   0  0  0  0  0  0
   10.2397   -1.6666    7.8397 C   0  0  0  0  0  0
    9.4913   -2.8835    7.9845 C   0  0  0  0  0  0
    7.8172   -9.0958   -2.9993 H   0  0  0  0  0  0
  1  8  1  0  0  0
  1 10  1  0  0  0
  2  8  2  0  0  0
  3  9  2  0  0  0
  4 15  1  0  0  0
  4 18  1  0  0  0
  5  8  1  0  0  0
  5  9  1  0  0  0
  5 26  1  0  0  0
  6 19  1  0  0  0
  6 20  1  0  0  0
  6 21  1  0  0  0
  7 21  2  0  0  0
  7 22  1  0  0  0
  9 10  1  0  0  0
 10 11  1  0  0  0
 11 12  1  0  0  0
 12 13  2  0  0  0
 12 17  1  0  0  0
 13 14  1  0  0  0
 14 15  2  0  0  0
 15 16  1  0  0  0
 16 17  2  0  0  0
 18 19  1  0  0  0
 21 25  1  0  0  0
 22 23  2  0  0  0
 23 24  1  0  0  0
 24 25  2  0  0  0
M  END
>  <CHROM.0>
-86.60021603,157.17303462,-164.53692357,139.48430175,40.61467059

>  <CHROM.1>
-38.71799925,125.09321188,74.63642616,40.14761090,55.12085079,146.73228941
90.79410208,9.58373233,-6.47640941,2.20372026,-1.39801301,1.19484379,0.90520524

>  <FORMUL>
      BRL    C18 H19 N3 O3 S1

>  <HET>
 BRL  A   1      25

>  <HETNAM>
     BRL 2,4-THIAZOLIDIINEDIONE, 5-[[4-[2-(METHYL-2-PYRIDINYLAMI
   2 BRL NO)ETHOXY]PHENYL]METHYL]-(9CL)

>  <HETSYN>
     BRL BRL49653; ROSIGLITAZONE

>  <Name>
BRL.pdb

>  <RI>
4.0656e+07

>  <Rbt.Current_Directory>
/home/malgorzata/Desktop/rDOCK_IFD/Wyniki/13_ppar-gamma

>  <Rbt.Executable>
rbdock ($Id: //depot/dev/client3/rdock/2013.1/src/exe/rbdock.cxx#4 $)

>  <Rbt.Library>
libRbt.so (2013.1, Build901 2013/11/27)

>  <Rbt.Parameter_File>
/home/malgorzata/Desktop/rDock_2013.1_src/data/scripts/soft_docking.prm

>  <Rbt.Receptor>
cavity.prm

>  <SCORE>
-18.0266

>  <SCORE.INTER>
-23.7406

>  <SCORE.INTER.CONST>
1

>  <SCORE.INTER.POLAR>
-0.906085

>  <SCORE.INTER.REPUL>
0

>  <SCORE.INTER.ROT>
7

>  <SCORE.INTER.VDW>
-33.0599

>  <SCORE.INTER.norm>
-0.949625

>  <SCORE.INTRA>
4.97203

>  <SCORE.INTRA.DIHEDRAL>
15.8083

>  <SCORE.INTRA.DIHEDRAL.0>
5.55665

>  <SCORE.INTRA.POLAR>
0

>  <SCORE.INTRA.POLAR.0>
0

>  <SCORE.INTRA.REPUL>
0

>  <SCORE.INTRA.REPUL.0>
0

>  <SCORE.INTRA.VDW>
1.81037

>  <SCORE.INTRA.VDW.0>
-2.56587

>  <SCORE.INTRA.norm>
0.198881

>  <SCORE.RESTR>
0

>  <SCORE.RESTR.CAVITY>
0

>  <SCORE.RESTR.norm>
0

>  <SCORE.SYSTEM>
0.742014

>  <SCORE.SYSTEM.CONST>
0

>  <SCORE.SYSTEM.DIHEDRAL>
7.85165

>  <SCORE.SYSTEM.POLAR>
-0.333703

>  <SCORE.SYSTEM.REPUL>
0.17871

>  <SCORE.SYSTEM.VDW>
-2.94277

>  <SCORE.SYSTEM.norm>
0.0296805

>  <SCORE.heavy>
25

>  <SCORE.norm>
-0.721064

$$$$
BRL.pdb
  rDOCK(R)          3D
libRbt.so/2013.1/901 2013/11/27
 26 28  0  0  0  0  0  0  0  0999 V2000
   11.0020   -3.5128   10.3832 S   0  0  0  0  0  0
   13.2946   -3.8341    9.0473 O   0  0  0  0  0  0
   13.3497   -3.9311   13.5190 O   0  0  0  0  0  0
   11.5016  -10.3917   11.7612 O   0  0  0  0  0  0
   13.5181   -3.9507   11.2525 N   0  0  0  0  0  0
   10.8105  -12.3278    9.7163 N   0  0  0  0  0  0
    9.5932  -10.0904    9.1570 N   0  0  0  0  0  0
   12.7819   -3.7852   10.1647 C   0  0  0  0  0  0
   12.8215   -3.8854   12.3958 C   0  0  0  0  0  0
   11.3101   -3.7030   12.1983 C   0  0  0  0  0  0
   10.4055   -4.8152   12.8799 C   0  0  0  0  0  0
   10.6369   -6.2648   12.5013 C   0  0  0  0  0  0
   11.8313   -6.7121   11.7943 C   0  0  0  0  0  0
   12.0413   -8.1070   11.5777 C   0  0  0  0  0  0
   11.0768   -9.0808   12.0375 C   0  0  0  0  0  0
    9.8427   -8.6095   12.6730 C   0  0  0  0  0  0
    9.6260   -7.2147   12.9064 C   0  0  0  0  0  0
   12.6582  -10.9275   11.0250 C   0  0  0  0  0  0
   12.1388  -12.2707   10.4705 C   0  0  0  0  0  0
   10.8853  -13.4786    8.7022 C   0  0  0  0  0  0
    9.5967  -11.3012    9.8366 C   0  0  0  0  0  0
    8.5795   -9.1850    9.1981 C   0  0  0  0  0  0
    7.3963   -9.4392    9.9911 C   0  0  0  0  0  0
    7.3149  -10.6614   10.7327 C   0  0  0  0  0  0
    8.4060  -11.5922   10.6632 C   0  0  0  0  0  0
   14.4896   -4.1076   11.2242 H   0  0  0  0  0  0
  1  8  1  0  0  0
  1 10  1  0  0  0
  2  8  2  0  0  0
  3  9  2  0  0  0
  4 15  1  0  0  0
  4 18  1  0  0  0
  5  8  1  0  0  0
  5  9  1  0  0  0
  5 26  1  0  0  0
  6 19  1  0  0  0
  6 20  1  0  0  0
  6 21  1  0  0  0
  7 21  2  0  0  0
  7 22  1  0  0  0
  9 10  1  0  0  0
 10 11  1  0  0  0
 11 12  1  0  0  0
 12 13  2  0  0  0
 12 17  1  0  0  0
 13 14  1  0  0  0
 14 15  2  0  0  0
 15 16  1  0  0  0
 16 17  2  0  0  0
 18 19  1  0  0  0
 21 25  1  0  0  0
 22 23  2  0  0  0
 23 24  1  0  0  0
 24 25  2  0  0  0
M  END
>  <CHROM.0>
91.76239727,74.20901931,60.11489536,-140.94761977,178.52538356

>  <CHROM.1>
-5.28191727,-150.44149491,150.71668844,81.11740065,67.35110015,14.63103513
50.14428025,10.96159074,-7.73223549,11.01408557,1.28652233,-0.02297392,0.17071795

>  <FORMUL>
      BRL    C18 H19 N3 O3 S1

>  <HET>
 BRL  A   1      25

>  <HETNAM>
     BRL 2,4-THIAZOLIDIINEDIONE, 5-[[4-[2-(METHYL-2-PYRIDINYLAMI
   2 BRL NO)ETHOXY]PHENYL]METHYL]-(9CL)

>  <HETSYN>
     BRL BRL49653; ROSIGLITAZONE

>  <Name>
BRL.pdb

>  <RI>
4.0656e+07

>  <Rbt.Current_Directory>
/home/malgorzata/Desktop/rDOCK_IFD/Wyniki/13_ppar-gamma

>  <Rbt.Executable>
rbdock ($Id: //depot/dev/client3/rdock/2013.1/src/exe/rbdock.cxx#4 $)

>  <Rbt.Library>
libRbt.so (2013.1, Build901 2013/11/27)

>  <Rbt.Parameter_File>
/home/malgorzata/Desktop/rDock_2013.1_src/data/scripts/soft_docking.prm

>  <Rbt.Receptor>
cavity.prm

>  <SCORE>
-29.7555

>  <SCORE.INTER>
-29.9783

>  <SCORE.INTER.CONST>
1

>  <SCORE.INTER.POLAR>
0

>  <SCORE.INTER.REPUL>
0

>  <SCORE.INTER.ROT>
7

>  <SCORE.INTER.VDW>
-42.3783

>  <SCORE.INTER.norm>
-1.19913

>  <SCORE.INTRA>
1.39567

>  <SCORE.INTRA.DIHEDRAL>
14.0365

>  <SCORE.INTRA.DIHEDRAL.0>
5.55665

>  <SCORE.INTRA.POLAR>
0

>  <SCORE.INTRA.POLAR.0>
0

>  <SCORE.INTRA.REPUL>
0

>  <SCORE.INTRA.REPUL.0>
0

>  <SCORE.INTRA.VDW>
-1.41163

>  <SCORE.INTRA.VDW.0>
-2.56587

>  <SCORE.INTRA.norm>
0.0558268

>  <SCORE.RESTR>
0

>  <SCORE.RESTR.CAVITY>
0

>  <SCORE.RESTR.norm>
0

>  <SCORE.SYSTEM>
-1.17282

>  <SCORE.SYSTEM.CONST>
0

>  <SCORE.SYSTEM.DIHEDRAL>
3.29385

>  <SCORE.SYSTEM.POLAR>
-0.270229

>  <SCORE.SYSTEM.REPUL>
0.17871

>  <SCORE.SYSTEM.VDW>
-2.79452

>  <SCORE.SYSTEM.norm>
-0.0469128

>  <SCORE.heavy>
25

>  <SCORE.norm>
-1.19022

$$$$
BRL.pdb
  rDOCK(R)          3D
libRbt.so/2013.1/901 2013/11/27
 26 28  0  0  0  0  0  0  0  0999 V2000
    9.4487  -10.7492    8.8195 S   0  0  0  0  0  0
    6.9361   -9.8920    9.1295 O   0  0  0  0  0  0
    8.6614  -12.7107   12.1440 O   0  0  0  0  0  0
   11.5633   -5.7281   12.5142 O   0  0  0  0  0  0
    7.6252  -11.2512   10.7432 N   0  0  0  0  0  0
   12.2722   -3.0525   12.3865 N   0  0  0  0  0  0
   14.1554   -4.0291   10.8697 N   0  0  0  0  0  0
    7.8240  -10.5947    9.6109 C   0  0  0  0  0  0
    8.6846  -11.9632   11.1523 C   0  0  0  0  0  0
    9.9241  -11.8102   10.2596 C   0  0  0  0  0  0
   11.2322  -11.3112   11.0078 C   0  0  0  0  0  0
   11.3685   -9.8328   11.3139 C   0  0  0  0  0  0
   10.3135   -8.8688   11.0231 C   0  0  0  0  0  0
   10.4596   -7.5143   11.4484 C   0  0  0  0  0  0
   11.6474   -7.0831   12.1506 C   0  0  0  0  0  0
   12.7333   -8.0449   12.3621 C   0  0  0  0  0  0
   12.5941   -9.4082   11.9510 C   0  0  0  0  0  0
   10.4483   -4.8945   12.9926 C   0  0  0  0  0  0
   11.1125   -3.5278   13.2615 C   0  0  0  0  0  0
   11.8268   -1.7793   11.6522 C   0  0  0  0  0  0
   13.6592   -3.8008   12.1463 C   0  0  0  0  0  0
   15.3409   -4.6378   10.5995 C   0  0  0  0  0  0
   16.1889   -5.1085   11.6732 C   0  0  0  0  0  0
   15.7544   -4.9223   13.0249 C   0  0  0  0  0  0
   14.4963   -4.2747   13.2690 C   0  0  0  0  0  0
    6.7758  -11.2194   11.2399 H   0  0  0  0  0  0
  1  8  1  0  0  0
  1 10  1  0  0  0
  2  8  2  0  0  0
  3  9  2  0  0  0
  4 15  1  0  0  0
  4 18  1  0  0  0
  5  8  1  0  0  0
  5  9  1  0  0  0
  5 26  1  0  0  0
  6 19  1  0  0  0
  6 20  1  0  0  0
  6 21  1  0  0  0
  7 21  2  0  0  0
  7 22  1  0  0  0
  9 10  1  0  0  0
 10 11  1  0  0  0
 11 12  1  0  0  0
 12 13  2  0  0  0
 12 17  1  0  0  0
 13 14  1  0  0  0
 14 15  2  0  0  0
 15 16  1  0  0  0
 16 17  2  0  0  0
 18 19  1  0  0  0
 21 25  1  0  0  0
 22 23  2  0  0  0
 23 24  1  0  0  0
 24 25  2  0  0  0
M  END
>  <CHROM.0>
-118.02681170,97.90512337,-71.85866216,43.85704817,10.23306619

>  <CHROM.1>
37.97345246,177.06224886,116.73535600,129.24744542,45.21664581,3.87411674
33.52736678,11.27939139,-7.63847394,11.36115695,-2.14795758,-0.13608440,0.16942449

>  <FORMUL>
      BRL    C18 H19 N3 O3 S1

>  <HET>
 BRL  A   1      25

>  <HETNAM>
     BRL 2,4-THIAZOLIDIINEDIONE, 5-[[4-[2-(METHYL-2-PYRIDINYLAMI
   2 BRL NO)ETHOXY]PHENYL]METHYL]-(9CL)

>  <HETSYN>
     BRL BRL49653; ROSIGLITAZONE

>  <Name>
BRL.pdb

>  <RI>
4.0656e+07

>  <Rbt.Current_Directory>
/home/malgorzata/Desktop/rDOCK_IFD/Wyniki/13_ppar-gamma

>  <Rbt.Executable>
rbdock ($Id: //depot/dev/client3/rdock/2013.1/src/exe/rbdock.cxx#4 $)

>  <Rbt.Library>
libRbt.so (2013.1, Build901 2013/11/27)

>  <Rbt.Parameter_File>
/home/malgorzata/Desktop/rDock_2013.1_src/data/scripts/soft_docking.prm

>  <Rbt.Receptor>
cavity.prm

>  <SCORE>
-20.0569

>  <SCORE.INTER>
-23.0576

>  <SCORE.INTER.CONST>
1

>  <SCORE.INTER.POLAR>
-0.298218

>  <SCORE.INTER.REPUL>
0

>  <SCORE.INTER.ROT>
7

>  <SCORE.INTER.VDW>
-34.4437

>  <SCORE.INTER.norm>
-0.922306

>  <SCORE.INTRA>
1.84021

>  <SCORE.INTRA.DIHEDRAL>
9.46744

>  <SCORE.INTRA.DIHEDRAL.0>
5.55665

>  <SCORE.INTRA.POLAR>
0

>  <SCORE.INTRA.POLAR.0>
0

>  <SCORE.INTRA.REPUL>
0

>  <SCORE.INTRA.REPUL.0>
0

>  <SCORE.INTRA.VDW>
-0.0532805

>  <SCORE.INTRA.VDW.0>
-2.56587

>  <SCORE.INTRA.norm>
0.0736083

>  <SCORE.RESTR>
0.187013

>  <SCORE.RESTR.CAVITY>
0.187013

>  <SCORE.RESTR.norm>
0.00748053

>  <SCORE.SYSTEM>
0.973486

>  <SCORE.SYSTEM.CONST>
0

>  <SCORE.SYSTEM.DIHEDRAL>
8.6248

>  <SCORE.SYSTEM.POLAR>
-0.204367

>  <SCORE.SYSTEM.REPUL>
0.17871

>  <SCORE.SYSTEM.VDW>
-3.53761

>  <SCORE.SYSTEM.norm>
0.0389394

>  <SCORE.heavy>
25

>  <SCORE.norm>
-0.802278

$$$$
