BRL.pdb
  rDOCK(R)          3D
libRbt.so/2013.1/901 2013/11/27
 26 28  0  0  0  0  0  0  0  0999 V2000
   10.3079  -13.1363   10.2748 S   0  0  0  0  0  0
    9.5930  -14.4107    8.0368 O   0  0  0  0  0  0
   11.7725  -10.5171    7.7224 O   0  0  0  0  0  0
   14.5650   -6.2338   11.8132 O   0  0  0  0  0  0
   10.6963  -12.5185    7.6776 N   0  0  0  0  0  0
   11.4400   -4.0317   11.7753 N   0  0  0  0  0  0
   12.3981   -2.1955   10.1906 N   0  0  0  0  0  0
   10.1580  -13.4156    8.4889 C   0  0  0  0  0  0
   11.2884  -11.4972    8.3122 C   0  0  0  0  0  0
   11.2780  -11.6205    9.8424 C   0  0  0  0  0  0
   12.7080  -11.5679   10.5294 C   0  0  0  0  0  0
   13.2774  -10.2147   10.9073 C   0  0  0  0  0  0
   14.0457   -9.3967    9.9761 C   0  0  0  0  0  0
   14.4470   -8.0816   10.3585 C   0  0  0  0  0  0
   14.1142   -7.5564   11.6637 C   0  0  0  0  0  0
   13.4132   -8.4216   12.6173 C   0  0  0  0  0  0
   12.9951   -9.7373   12.2418 C   0  0  0  0  0  0
   13.8847   -4.9907   12.2122 C   0  0  0  0  0  0
   12.4680   -5.1524   11.6221 C   0  0  0  0  0  0
   10.1696   -4.6297   12.3973 C   0  0  0  0  0  0
   11.5779   -2.5293   11.2601 C   0  0  0  0  0  0
   12.5393   -0.9398    9.6885 C   0  0  0  0  0  0
   11.8159    0.1711   10.2682 C   0  0  0  0  0  0
   10.9502   -0.0777   11.3813 C   0  0  0  0  0  0
   10.8277   -1.4177   11.8824 C   0  0  0  0  0  0
   10.6644  -12.5947    6.6966 H   0  0  0  0  0  0
  1  8  1  0  0  0
  1 10  1  0  0  0
  2  8  2  0  0  0
  3  9  2  0  0  0
  4 15  1  0  0  0
  4 18  1  0  0  0
  5  8  1  0  0  0
  5  9  1  0  0  0
  5 26  1  0  0  0
  6 19  1  0  0  0
  6 20  1  0  0  0
  6 21  1  0  0  0
  7 21  2  0  0  0
  7 22  1  0  0  0
  9 10  1  0  0  0
 10 11  1  0  0  0
 11 12  1  0  0  0
 12 13  2  0  0  0
 12 17  1  0  0  0
 13 14  1  0  0  0
 14 15  2  0  0  0
 15 16  1  0  0  0
 16 17  2  0  0  0
 18 19  1  0  0  0
 21 25  1  0  0  0
 22 23  2  0  0  0
 23 24  1  0  0  0
 24 25  2  0  0  0
M  END
>  <CHROM.0>
-77.82661553,169.04397822,39.94937546,-17.73313292,5.68206124

>  <CHROM.1>
126.84765480,-34.59525425,-126.51369200,25.35728881,-147.46119484,-86.91967747
-177.86653969,11.99807300,-7.71318345,10.48675648,1.67854291,0.60646463,-3.01468023

>  <FORMUL>
      BRL    C18 H19 N3 O3 S1

>  <HET>
 BRL  A   1      25

>  <HETNAM>
     BRL 2,4-THIAZOLIDIINEDIONE, 5-[[4-[2-(METHYL-2-PYRIDINYLAMI
   2 BRL NO)ETHOXY]PHENYL]METHYL]-(9CL)

>  <HETSYN>
     BRL BRL49653; ROSIGLITAZONE

>  <Name>
BRL.pdb

>  <RI>
0

>  <Rbt.Current_Directory>
/home/malgorzata/Desktop/rDOCK_IFD/Wyniki/13_ppar-gamma

>  <Rbt.Executable>
rbdock ($Id: //depot/dev/client3/rdock/2013.1/src/exe/rbdock.cxx#4 $)

>  <Rbt.Library>
libRbt.so (2013.1, Build901 2013/11/27)

>  <Rbt.Parameter_File>
/home/malgorzata/Desktop/rDock_2013.1_src/data/scripts/soft_docking.prm

>  <Rbt.Receptor>
cavity.prm

>  <SCORE>
-25.1764

>  <SCORE.INTER>
-27.3876

>  <SCORE.INTER.CONST>
1

>  <SCORE.INTER.POLAR>
-0.719887

>  <SCORE.INTER.REPUL>
0

>  <SCORE.INTER.ROT>
7

>  <SCORE.INTER.VDW>
-37.34

>  <SCORE.INTER.norm>
-1.09551

>  <SCORE.INTRA>
2.46518

>  <SCORE.INTRA.DIHEDRAL>
9.42296

>  <SCORE.INTRA.DIHEDRAL.0>
5.55665

>  <SCORE.INTRA.POLAR>
0

>  <SCORE.INTRA.POLAR.0>
0

>  <SCORE.INTRA.REPUL>
0

>  <SCORE.INTRA.REPUL.0>
0

>  <SCORE.INTRA.VDW>
0.580593

>  <SCORE.INTRA.VDW.0>
-2.56587

>  <SCORE.INTRA.norm>
0.0986074

>  <SCORE.RESTR>
0.919691

>  <SCORE.RESTR.CAVITY>
0.183938

>  <SCORE.RESTR.norm>
0.0367876

>  <SCORE.SYSTEM>
-1.17361

>  <SCORE.SYSTEM.CONST>
0

>  <SCORE.SYSTEM.DIHEDRAL>
3.26343

>  <SCORE.SYSTEM.POLAR>
-0.279427

>  <SCORE.SYSTEM.REPUL>
0.17871

>  <SCORE.SYSTEM.VDW>
-2.74883

>  <SCORE.SYSTEM.norm>
-0.0469445

>  <SCORE.heavy>
25

>  <SCORE.norm>
-1.00706

$$$$
BRL.pdb
  rDOCK(R)          3D
libRbt.so/2013.1/901 2013/11/27
 26 28  0  0  0  0  0  0  0  0999 V2000
   14.5496   -4.9856   14.8578 S   0  0  0  0  0  0
   17.1486   -5.5627   14.6207 O   0  0  0  0  0  0
   14.5536   -5.6750   10.9790 O   0  0  0  0  0  0
    8.4368   -4.2506    9.3188 O   0  0  0  0  0  0
   16.0357   -5.6343   12.7017 N   0  0  0  0  0  0
   10.2918   -4.0114    6.1726 N   0  0  0  0  0  0
    9.4159   -5.6501    4.3427 N   0  0  0  0  0  0
   16.0863   -5.4454   14.0111 C   0  0  0  0  0  0
   14.8163   -5.4589   12.1736 C   0  0  0  0  0  0
   13.7544   -5.0085   13.1866 C   0  0  0  0  0  0
   13.0110   -3.6542   12.8217 C   0  0  0  0  0  0
   11.8281   -3.7130   11.8755 C   0  0  0  0  0  0
   11.9305   -4.2415   10.5202 C   0  0  0  0  0  0
   10.7523   -4.3799    9.7267 C   0  0  0  0  0  0
    9.4608   -3.9882   10.2449 C   0  0  0  0  0  0
    9.3868   -3.3825   11.5778 C   0  0  0  0  0  0
   10.5588   -3.2494   12.3876 C   0  0  0  0  0  0
    8.4513   -4.7685    7.9409 C   0  0  0  0  0  0
    9.1696   -3.6565    7.1478 C   0  0  0  0  0  0
   11.6324   -3.6821    6.8455 C   0  0  0  0  0  0
   10.1295   -4.5034    4.6648 C   0  0  0  0  0  0
    9.2203   -6.1077    3.0772 C   0  0  0  0  0  0
    9.7731   -5.3985    1.9437 C   0  0  0  0  0  0
   10.5310   -4.2070    2.1809 C   0  0  0  0  0  0
   10.7151   -3.7559    3.5316 C   0  0  0  0  0  0
   16.8227   -5.8813   12.1643 H   0  0  0  0  0  0
  1  8  1  0  0  0
  1 10  1  0  0  0
  2  8  2  0  0  0
  3  9  2  0  0  0
  4 15  1  0  0  0
  4 18  1  0  0  0
  5  8  1  0  0  0
  5  9  1  0  0  0
  5 26  1  0  0  0
  6 19  1  0  0  0
  6 20  1  0  0  0
  6 21  1  0  0  0
  7 21  2  0  0  0
  7 22  1  0  0  0
  9 10  1  0  0  0
 10 11  1  0  0  0
 11 12  1  0  0  0
 12 13  2  0  0  0
 12 17  1  0  0  0
 13 14  1  0  0  0
 14 15  2  0  0  0
 15 16  1  0  0  0
 16 17  2  0  0  0
 18 19  1  0  0  0
 21 25  1  0  0  0
 22 23  2  0  0  0
 23 24  1  0  0  0
 24 25  2  0  0  0
M  END
>  <CHROM.0>
2.26652892,71.07563553,-64.95639962,-135.41850134,43.98326311

>  <CHROM.1>
-3.58887035,-66.00160372,-102.59720252,-58.65681259,-151.62097649,-58.67205210
132.62358017,11.85495790,-4.60911381,9.48479553,1.04937052,-0.29292212,1.44326099

>  <FORMUL>
      BRL    C18 H19 N3 O3 S1

>  <HET>
 BRL  A   1      25

>  <HETNAM>
     BRL 2,4-THIAZOLIDIINEDIONE, 5-[[4-[2-(METHYL-2-PYRIDINYLAMI
   2 BRL NO)ETHOXY]PHENYL]METHYL]-(9CL)

>  <HETSYN>
     BRL BRL49653; ROSIGLITAZONE

>  <Name>
BRL.pdb

>  <RI>
0

>  <Rbt.Current_Directory>
/home/malgorzata/Desktop/rDOCK_IFD/Wyniki/13_ppar-gamma

>  <Rbt.Executable>
rbdock ($Id: //depot/dev/client3/rdock/2013.1/src/exe/rbdock.cxx#4 $)

>  <Rbt.Library>
libRbt.so (2013.1, Build901 2013/11/27)

>  <Rbt.Parameter_File>
/home/malgorzata/Desktop/rDock_2013.1_src/data/scripts/soft_docking.prm

>  <Rbt.Receptor>
cavity.prm

>  <SCORE>
-15.5538

>  <SCORE.INTER>
-19.942

>  <SCORE.INTER.CONST>
1

>  <SCORE.INTER.POLAR>
-0.0106546

>  <SCORE.INTER.REPUL>
0

>  <SCORE.INTER.ROT>
7

>  <SCORE.INTER.VDW>
-32.3058

>  <SCORE.INTER.norm>
-0.797681

>  <SCORE.INTRA>
4.31157

>  <SCORE.INTRA.DIHEDRAL>
13.6051

>  <SCORE.INTRA.DIHEDRAL.0>
5.55665

>  <SCORE.INTRA.POLAR>
0

>  <SCORE.INTRA.POLAR.0>
0

>  <SCORE.INTRA.REPUL>
0

>  <SCORE.INTRA.REPUL.0>
0

>  <SCORE.INTRA.VDW>
1.59054

>  <SCORE.INTRA.VDW.0>
-2.56587

>  <SCORE.INTRA.norm>
0.172463

>  <SCORE.RESTR>
0

>  <SCORE.RESTR.CAVITY>
0

>  <SCORE.RESTR.norm>
0

>  <SCORE.SYSTEM>
0.0766328

>  <SCORE.SYSTEM.CONST>
0

>  <SCORE.SYSTEM.DIHEDRAL>
5.85798

>  <SCORE.SYSTEM.POLAR>
-0.360861

>  <SCORE.SYSTEM.REPUL>
0.17871

>  <SCORE.SYSTEM.VDW>
-2.51898

>  <SCORE.SYSTEM.norm>
0.00306531

>  <SCORE.heavy>
25

>  <SCORE.norm>
-0.622153

$$$$
BRL.pdb
  rDOCK(R)          3D
libRbt.so/2013.1/901 2013/11/27
 26 28  0  0  0  0  0  0  0  0999 V2000
   10.2214   -2.0559    8.0050 S   0  0  0  0  0  0
   10.2989    0.4327    7.0330 O   0  0  0  0  0  0
   12.0940   -0.3930   11.0460 O   0  0  0  0  0  0
   11.7177   -7.8985   12.9882 O   0  0  0  0  0  0
   11.2721    0.2140    9.0158 N   0  0  0  0  0  0
   12.4991  -10.6397   10.5491 N   0  0  0  0  0  0
   10.2526  -11.7813   11.2207 N   0  0  0  0  0  0
   10.6137   -0.2852    7.9814 C   0  0  0  0  0  0
   11.5583   -0.6881    9.9649 C   0  0  0  0  0  0
   11.1245   -2.1195    9.6193 C   0  0  0  0  0  0
   12.2879   -3.1991    9.6507 C   0  0  0  0  0  0
   12.1600   -4.3698   10.6052 C   0  0  0  0  0  0
   10.8776   -4.8112   11.1411 C   0  0  0  0  0  0
   10.8159   -5.9942   11.9371 C   0  0  0  0  0  0
   12.0117   -6.7516   12.2311 C   0  0  0  0  0  0
   13.3033   -6.2490   11.7537 C   0  0  0  0  0  0
   13.3770   -5.0710   10.9450 C   0  0  0  0  0  0
   11.4827   -9.3030   12.6149 C   0  0  0  0  0  0
   12.6689   -9.6292   11.6833 C   0  0  0  0  0  0
   13.7360  -10.5540    9.6429 C   0  0  0  0  0  0
   11.2153  -11.5365   10.2505 C   0  0  0  0  0  0
    9.1252  -12.5151   11.0219 C   0  0  0  0  0  0
    8.8539  -13.1142    9.7332 C   0  0  0  0  0  0
    9.7963  -12.9207    8.6726 C   0  0  0  0  0  0
   10.9747  -12.1390    8.9220 C   0  0  0  0  0  0
   11.5283    1.1622    9.0819 H   0  0  0  0  0  0
  1  8  1  0  0  0
  1 10  1  0  0  0
  2  8  2  0  0  0
  3  9  2  0  0  0
  4 15  1  0  0  0
  4 18  1  0  0  0
  5  8  1  0  0  0
  5  9  1  0  0  0
  5 26  1  0  0  0
  6 19  1  0  0  0
  6 20  1  0  0  0
  6 21  1  0  0  0
  7 21  2  0  0  0
  7 22  1  0  0  0
  9 10  1  0  0  0
 10 11  1  0  0  0
 11 12  1  0  0  0
 12 13  2  0  0  0
 12 17  1  0  0  0
 13 14  1  0  0  0
 14 15  2  0  0  0
 15 16  1  0  0  0
 16 17  2  0  0  0
 18 19  1  0  0  0
 21 25  1  0  0  0
 22 23  2  0  0  0
 23 24  1  0  0  0
 24 25  2  0  0  0
M  END
>  <CHROM.0>
67.32663433,-62.72409771,51.22157324,-172.66962699,125.27185958

>  <CHROM.1>
95.87769594,49.04275652,169.18126182,-19.45767613,-115.32566360,21.73711576
-148.88496683,11.33017332,-6.23910440,10.20812403,1.53601550,-0.95394442
-0.17078271

>  <FORMUL>
      BRL    C18 H19 N3 O3 S1

>  <HET>
 BRL  A   1      25

>  <HETNAM>
     BRL 2,4-THIAZOLIDIINEDIONE, 5-[[4-[2-(METHYL-2-PYRIDINYLAMI
   2 BRL NO)ETHOXY]PHENYL]METHYL]-(9CL)

>  <HETSYN>
     BRL BRL49653; ROSIGLITAZONE

>  <Name>
BRL.pdb

>  <RI>
0

>  <Rbt.Current_Directory>
/home/malgorzata/Desktop/rDOCK_IFD/Wyniki/13_ppar-gamma

>  <Rbt.Executable>
rbdock ($Id: //depot/dev/client3/rdock/2013.1/src/exe/rbdock.cxx#4 $)

>  <Rbt.Library>
libRbt.so (2013.1, Build901 2013/11/27)

>  <Rbt.Parameter_File>
/home/malgorzata/Desktop/rDock_2013.1_src/data/scripts/soft_docking.prm

>  <Rbt.Receptor>
cavity.prm

>  <SCORE>
-20.1404

>  <SCORE.INTER>
-22.5545

>  <SCORE.INTER.CONST>
1

>  <SCORE.INTER.POLAR>
0

>  <SCORE.INTER.REPUL>
0.00444965

>  <SCORE.INTER.ROT>
7

>  <SCORE.INTER.VDW>
-34.9767

>  <SCORE.INTER.norm>
-0.90218

>  <SCORE.INTRA>
3.22588

>  <SCORE.INTRA.DIHEDRAL>
11.9385

>  <SCORE.INTRA.DIHEDRAL.0>
5.55665

>  <SCORE.INTRA.POLAR>
0

>  <SCORE.INTRA.POLAR.0>
0

>  <SCORE.INTRA.REPUL>
0

>  <SCORE.INTRA.REPUL.0>
0

>  <SCORE.INTRA.VDW>
0.838178

>  <SCORE.INTRA.VDW.0>
-2.56587

>  <SCORE.INTRA.norm>
0.129035

>  <SCORE.RESTR>
1.09402

>  <SCORE.RESTR.CAVITY>
0.218803

>  <SCORE.RESTR.norm>
0.0437607

>  <SCORE.SYSTEM>
-1.9058

>  <SCORE.SYSTEM.CONST>
0

>  <SCORE.SYSTEM.DIHEDRAL>
4.06771

>  <SCORE.SYSTEM.POLAR>
-0.683774

>  <SCORE.SYSTEM.REPUL>
0.17871

>  <SCORE.SYSTEM.VDW>
-2.50837

>  <SCORE.SYSTEM.norm>
-0.0762319

>  <SCORE.heavy>
25

>  <SCORE.norm>
-0.805616

$$$$
BRL.pdb
  rDOCK(R)          3D
libRbt.so/2013.1/901 2013/11/27
 26 28  0  0  0  0  0  0  0  0999 V2000
   13.4400  -10.0922   12.1445 S   0  0  0  0  0  0
   14.9363   -9.2589   10.0925 O   0  0  0  0  0  0
   10.5135   -9.6440    9.5456 O   0  0  0  0  0  0
   11.1743   -3.4188   12.2886 O   0  0  0  0  0  0
   12.7652   -9.3494    9.6403 N   0  0  0  0  0  0
   12.3836   -2.1306    9.7238 N   0  0  0  0  0  0
   11.0410    0.0755   10.0864 N   0  0  0  0  0  0
   13.7904   -9.5123   10.4620 C   0  0  0  0  0  0
   11.5783   -9.6517   10.1849 C   0  0  0  0  0  0
   11.6529  -10.0542   11.6645 C   0  0  0  0  0  0
   10.7541   -9.1849   12.6423 C   0  0  0  0  0  0
   10.9256   -7.6787   12.6319 C   0  0  0  0  0  0
   11.9115   -7.0051   11.7947 C   0  0  0  0  0  0
   11.9361   -5.5791   11.7432 C   0  0  0  0  0  0
   11.0053   -4.7942   12.5227 C   0  0  0  0  0  0
   10.0758   -5.4850   13.4214 C   0  0  0  0  0  0
   10.0333   -6.9142   13.4731 C   0  0  0  0  0  0
   12.3506   -2.5362   12.3548 C   0  0  0  0  0  0
   13.0206   -2.7287   10.9780 C   0  0  0  0  0  0
   12.2051   -3.2563    8.6947 C   0  0  0  0  0  0
   12.0780   -0.5906    9.4470 C   0  0  0  0  0  0
   10.7455    1.3914    9.9129 C   0  0  0  0  0  0
   11.5249    2.2084    9.0082 C   0  0  0  0  0  0
   12.6118    1.6038    8.2986 C   0  0  0  0  0  0
   12.8924    0.2115    8.5093 C   0  0  0  0  0  0
   12.8655   -9.0348    8.7129 H   0  0  0  0  0  0
  1  8  1  0  0  0
  1 10  1  0  0  0
  2  8  2  0  0  0
  3  9  2  0  0  0
  4 15  1  0  0  0
  4 18  1  0  0  0
  5  8  1  0  0  0
  5  9  1  0  0  0
  5 26  1  0  0  0
  6 19  1  0  0  0
  6 20  1  0  0  0
  6 21  1  0  0  0
  7 21  2  0  0  0
  7 22  1  0  0  0
  9 10  1  0  0  0
 10 11  1  0  0  0
 11 12  1  0  0  0
 12 13  2  0  0  0
 12 17  1  0  0  0
 13 14  1  0  0  0
 14 15  2  0  0  0
 15 16  1  0  0  0
 16 17  2  0  0  0
 18 19  1  0  0  0
 21 25  1  0  0  0
 22 23  2  0  0  0
 23 24  1  0  0  0
 24 25  2  0  0  0
M  END
>  <CHROM.0>
4.21376442,42.79733790,31.21770257,-108.22187727,-6.79038106

>  <CHROM.1>
-53.28731978,83.76272899,-125.94813972,-73.32940568,69.95547660,-2.12161885
72.57415373,11.99148139,-5.24279862,10.89443911,-1.49376041,0.91997667,-0.24298633

>  <FORMUL>
      BRL    C18 H19 N3 O3 S1

>  <HET>
 BRL  A   1      25

>  <HETNAM>
     BRL 2,4-THIAZOLIDIINEDIONE, 5-[[4-[2-(METHYL-2-PYRIDINYLAMI
   2 BRL NO)ETHOXY]PHENYL]METHYL]-(9CL)

>  <HETSYN>
     BRL BRL49653; ROSIGLITAZONE

>  <Name>
BRL.pdb

>  <RI>
0

>  <Rbt.Current_Directory>
/home/malgorzata/Desktop/rDOCK_IFD/Wyniki/13_ppar-gamma

>  <Rbt.Executable>
rbdock ($Id: //depot/dev/client3/rdock/2013.1/src/exe/rbdock.cxx#4 $)

>  <Rbt.Library>
libRbt.so (2013.1, Build901 2013/11/27)

>  <Rbt.Parameter_File>
/home/malgorzata/Desktop/rDock_2013.1_src/data/scripts/soft_docking.prm

>  <Rbt.Receptor>
cavity.prm

>  <SCORE>
-17.4539

>  <SCORE.INTER>
-23.125

>  <SCORE.INTER.CONST>
1

>  <SCORE.INTER.POLAR>
-0.121484

>  <SCORE.INTER.REPUL>
0

>  <SCORE.INTER.ROT>
7

>  <SCORE.INTER.VDW>
-35.1119

>  <SCORE.INTER.norm>
-0.924998

>  <SCORE.INTRA>
2.86519

>  <SCORE.INTRA.DIHEDRAL>
15.5229

>  <SCORE.INTRA.DIHEDRAL.0>
5.55665

>  <SCORE.INTRA.POLAR>
0

>  <SCORE.INTRA.POLAR.0>
0

>  <SCORE.INTRA.REPUL>
0

>  <SCORE.INTRA.REPUL.0>
0

>  <SCORE.INTRA.VDW>
-0.239382

>  <SCORE.INTRA.VDW.0>
-2.56587

>  <SCORE.INTRA.norm>
0.114608

>  <SCORE.RESTR>
0

>  <SCORE.RESTR.CAVITY>
0

>  <SCORE.RESTR.norm>
0

>  <SCORE.SYSTEM>
2.80585

>  <SCORE.SYSTEM.CONST>
0

>  <SCORE.SYSTEM.DIHEDRAL>
9.54805

>  <SCORE.SYSTEM.POLAR>
-0.198265

>  <SCORE.SYSTEM.REPUL>
0.17871

>  <SCORE.SYSTEM.VDW>
-2.18763

>  <SCORE.SYSTEM.norm>
0.112234

>  <SCORE.heavy>
25

>  <SCORE.norm>
-0.698156

$$$$
BRL.pdb
  rDOCK(R)          3D
libRbt.so/2013.1/901 2013/11/27
 26 28  0  0  0  0  0  0  0  0999 V2000
   10.1386   -3.1261    8.9540 S   0  0  0  0  0  0
   11.7896   -3.9549    7.0223 O   0  0  0  0  0  0
   13.4974   -2.7592   10.9799 O   0  0  0  0  0  0
   12.5077   -9.0588   12.1801 O   0  0  0  0  0  0
   12.8176   -3.4426    8.9215 N   0  0  0  0  0  0
   11.1707  -11.1677   10.4555 N   0  0  0  0  0  0
    9.2617   -9.4269   10.8107 N   0  0  0  0  0  0
   11.7239   -3.5550    8.1840 C   0  0  0  0  0  0
   12.5900   -3.0086   10.1691 C   0  0  0  0  0  0
   11.1051   -2.8018   10.4988 C   0  0  0  0  0  0
   10.5777   -3.6140   11.7566 C   0  0  0  0  0  0
   11.0876   -5.0257   11.9691 C   0  0  0  0  0  0
   10.1982   -6.1775   12.0631 C   0  0  0  0  0  0
   10.7513   -7.4908   12.1409 C   0  0  0  0  0  0
   12.1830   -7.6919   12.1430 C   0  0  0  0  0  0
   13.0627   -6.5193   12.1311 C   0  0  0  0  0  0
   12.5206   -5.1983   12.0411 C   0  0  0  0  0  0
   13.3495   -9.9044   11.3179 C   0  0  0  0  0  0
   12.3988  -10.3038   10.1698 C   0  0  0  0  0  0
   11.6399  -12.6171   10.6492 C   0  0  0  0  0  0
    9.6457  -10.7038   10.4235 C   0  0  0  0  0  0
    7.9837   -8.9631   10.7826 C   0  0  0  0  0  0
    6.9018   -9.8120   10.3331 C   0  0  0  0  0  0
    7.2029  -11.1497    9.9204 C   0  0  0  0  0  0
    8.5650  -11.6021    9.9643 C   0  0  0  0  0  0
   13.7169   -3.6584    8.5841 H   0  0  0  0  0  0
  1  8  1  0  0  0
  1 10  1  0  0  0
  2  8  2  0  0  0
  3  9  2  0  0  0
  4 15  1  0  0  0
  4 18  1  0  0  0
  5  8  1  0  0  0
  5  9  1  0  0  0
  5 26  1  0  0  0
  6 19  1  0  0  0
  6 20  1  0  0  0
  6 21  1  0  0  0
  7 21  2  0  0  0
  7 22  1  0  0  0
  9 10  1  0  0  0
 10 11  1  0  0  0
 11 12  1  0  0  0
 12 13  2  0  0  0
 12 17  1  0  0  0
 13 14  1  0  0  0
 14 15  2  0  0  0
 15 16  1  0  0  0
 16 17  2  0  0  0
 18 19  1  0  0  0
 21 25  1  0  0  0
 22 23  2  0  0  0
 23 24  1  0  0  0
 24 25  2  0  0  0
M  END
>  <CHROM.0>
15.96731155,39.07422217,-153.19695077,138.84122763,-37.66158697

>  <CHROM.1>
125.56039682,-84.64837569,-76.32409908,-34.31358003,85.73696980,-122.80054464
-64.59299851,10.99715517,-6.95122401,10.52909071,1.30773364,-0.40732089,-0.21885364

>  <FORMUL>
      BRL    C18 H19 N3 O3 S1

>  <HET>
 BRL  A   1      25

>  <HETNAM>
     BRL 2,4-THIAZOLIDIINEDIONE, 5-[[4-[2-(METHYL-2-PYRIDINYLAMI
   2 BRL NO)ETHOXY]PHENYL]METHYL]-(9CL)

>  <HETSYN>
     BRL BRL49653; ROSIGLITAZONE

>  <Name>
BRL.pdb

>  <RI>
0

>  <Rbt.Current_Directory>
/home/malgorzata/Desktop/rDOCK_IFD/Wyniki/13_ppar-gamma

>  <Rbt.Executable>
rbdock ($Id: //depot/dev/client3/rdock/2013.1/src/exe/rbdock.cxx#4 $)

>  <Rbt.Library>
libRbt.so (2013.1, Build901 2013/11/27)

>  <Rbt.Parameter_File>
/home/malgorzata/Desktop/rDock_2013.1_src/data/scripts/soft_docking.prm

>  <Rbt.Receptor>
cavity.prm

>  <SCORE>
-24.2303

>  <SCORE.INTER>
-28.2347

>  <SCORE.INTER.CONST>
1

>  <SCORE.INTER.POLAR>
-0.479533

>  <SCORE.INTER.REPUL>
0

>  <SCORE.INTER.ROT>
7

>  <SCORE.INTER.VDW>
-39.0043

>  <SCORE.INTER.norm>
-1.12939

>  <SCORE.INTRA>
1.93282

>  <SCORE.INTRA.DIHEDRAL>
8.84815

>  <SCORE.INTRA.DIHEDRAL.0>
5.55665

>  <SCORE.INTRA.POLAR>
0

>  <SCORE.INTRA.POLAR.0>
0

>  <SCORE.INTRA.REPUL>
0

>  <SCORE.INTRA.REPUL.0>
0

>  <SCORE.INTRA.VDW>
0.16319

>  <SCORE.INTRA.VDW.0>
-2.56587

>  <SCORE.INTRA.norm>
0.0773128

>  <SCORE.RESTR>
0

>  <SCORE.RESTR.CAVITY>
0

>  <SCORE.RESTR.norm>
0

>  <SCORE.SYSTEM>
2.07164

>  <SCORE.SYSTEM.CONST>
0

>  <SCORE.SYSTEM.DIHEDRAL>
9.15844

>  <SCORE.SYSTEM.POLAR>
-0.162609

>  <SCORE.SYSTEM.REPUL>
0.17871

>  <SCORE.SYSTEM.VDW>
-2.84826

>  <SCORE.SYSTEM.norm>
0.0828658

>  <SCORE.heavy>
25

>  <SCORE.norm>
-0.96921

$$$$
BRL.pdb
  rDOCK(R)          3D
libRbt.so/2013.1/901 2013/11/27
 26 28  0  0  0  0  0  0  0  0999 V2000
   11.2901  -13.0089    8.8518 S   0  0  0  0  0  0
    9.2159  -14.4024    7.9035 O   0  0  0  0  0  0
    8.4506  -10.5680   10.0762 O   0  0  0  0  0  0
   15.8408   -7.4866   11.5334 O   0  0  0  0  0  0
    8.6390  -12.5133    8.9158 N   0  0  0  0  0  0
   17.3083   -5.7721   13.1012 N   0  0  0  0  0  0
   15.3502   -4.4238   12.0295 N   0  0  0  0  0  0
    9.5491  -13.3844    8.5088 C   0  0  0  0  0  0
    9.1505  -11.4478    9.5481 C   0  0  0  0  0  0
   10.6845  -11.4299    9.6039 C   0  0  0  0  0  0
   11.3631  -10.1345    8.9863 C   0  0  0  0  0  0
   12.5470   -9.5253    9.7111 C   0  0  0  0  0  0
   13.9050   -9.5777    9.1821 C   0  0  0  0  0  0
   14.9512   -8.8786    9.8554 C   0  0  0  0  0  0
   14.6838   -8.1315   11.0639 C   0  0  0  0  0  0
   13.3306   -8.1568   11.6271 C   0  0  0  0  0  0
   12.2707   -8.8441   10.9553 C   0  0  0  0  0  0
   17.2683   -7.6464   11.2111 C   0  0  0  0  0  0
   17.9215   -6.4037   11.8516 C   0  0  0  0  0  0
   18.1094   -6.2504   14.3210 C   0  0  0  0  0  0
   15.9857   -4.8850   13.1746 C   0  0  0  0  0  0
   14.2080   -3.6860   12.0244 C   0  0  0  0  0  0
   13.5632   -3.3180   13.2663 C   0  0  0  0  0  0
   14.1522   -3.7444   14.4998 C   0  0  0  0  0  0
   15.3585   -4.5223   14.4633 C   0  0  0  0  0  0
    7.6737  -12.6368    8.7673 H   0  0  0  0  0  0
  1  8  1  0  0  0
  1 10  1  0  0  0
  2  8  2  0  0  0
  3  9  2  0  0  0
  4 15  1  0  0  0
  4 18  1  0  0  0
  5  8  1  0  0  0
  5  9  1  0  0  0
  5 26  1  0  0  0
  6 19  1  0  0  0
  6 20  1  0  0  0
  6 21  1  0  0  0
  7 21  2  0  0  0
  7 22  1  0  0  0
  9 10  1  0  0  0
 10 11  1  0  0  0
 11 12  1  0  0  0
 12 13  2  0  0  0
 12 17  1  0  0  0
 13 14  1  0  0  0
 14 15  2  0  0  0
 15 16  1  0  0  0
 16 17  2  0  0  0
 18 19  1  0  0  0
 21 25  1  0  0  0
 22 23  2  0  0  0
 23 24  1  0  0  0
 24 25  2  0  0  0
M  END
>  <CHROM.0>
67.22892608,69.78504729,54.64432673,145.80517058,-74.27277678

>  <CHROM.1>
-14.69527004,167.35017458,100.03910960,-10.01634213,-96.55712534,109.98962769
29.86112339,13.28102863,-8.61328524,10.92366457,-2.20136786,-0.02496358,0.49756326

>  <FORMUL>
      BRL    C18 H19 N3 O3 S1

>  <HET>
 BRL  A   1      25

>  <HETNAM>
     BRL 2,4-THIAZOLIDIINEDIONE, 5-[[4-[2-(METHYL-2-PYRIDINYLAMI
   2 BRL NO)ETHOXY]PHENYL]METHYL]-(9CL)

>  <HETSYN>
     BRL BRL49653; ROSIGLITAZONE

>  <Name>
BRL.pdb

>  <RI>
0

>  <Rbt.Current_Directory>
/home/malgorzata/Desktop/rDOCK_IFD/Wyniki/13_ppar-gamma

>  <Rbt.Executable>
rbdock ($Id: //depot/dev/client3/rdock/2013.1/src/exe/rbdock.cxx#4 $)

>  <Rbt.Library>
libRbt.so (2013.1, Build901 2013/11/27)

>  <Rbt.Parameter_File>
/home/malgorzata/Desktop/rDock_2013.1_src/data/scripts/soft_docking.prm

>  <Rbt.Receptor>
cavity.prm

>  <SCORE>
-22.4618

>  <SCORE.INTER>
-27.3452

>  <SCORE.INTER.CONST>
1

>  <SCORE.INTER.POLAR>
-0.0954103

>  <SCORE.INTER.REPUL>
0

>  <SCORE.INTER.ROT>
7

>  <SCORE.INTER.VDW>
-39.4208

>  <SCORE.INTER.norm>
-1.09381

>  <SCORE.INTRA>
1.75019

>  <SCORE.INTRA.DIHEDRAL>
5.41928

>  <SCORE.INTRA.DIHEDRAL.0>
5.55665

>  <SCORE.INTRA.POLAR>
0

>  <SCORE.INTRA.POLAR.0>
0

>  <SCORE.INTRA.REPUL>
0

>  <SCORE.INTRA.REPUL.0>
0

>  <SCORE.INTRA.VDW>
0.666332

>  <SCORE.INTRA.VDW.0>
-2.56587

>  <SCORE.INTRA.norm>
0.0700075

>  <SCORE.RESTR>
2.41568

>  <SCORE.RESTR.CAVITY>
0.483137

>  <SCORE.RESTR.norm>
0.0966273

>  <SCORE.SYSTEM>
0.717572

>  <SCORE.SYSTEM.CONST>
0

>  <SCORE.SYSTEM.DIHEDRAL>
6.91419

>  <SCORE.SYSTEM.POLAR>
-0.162609

>  <SCORE.SYSTEM.REPUL>
0.17871

>  <SCORE.SYSTEM.VDW>
-3.08021

>  <SCORE.SYSTEM.norm>
0.0287029

>  <SCORE.heavy>
25

>  <SCORE.norm>
-0.898471

$$$$
BRL.pdb
  rDOCK(R)          3D
libRbt.so/2013.1/901 2013/11/27
 26 28  0  0  0  0  0  0  0  0999 V2000
    8.9645   -4.3655    8.1680 S   0  0  0  0  0  0
    7.4953   -6.3880    9.1141 O   0  0  0  0  0  0
    6.5691   -4.7348    5.0622 O   0  0  0  0  0  0
   10.1504   -8.3960    1.6314 O   0  0  0  0  0  0
    6.9101   -5.7314    7.0762 N   0  0  0  0  0  0
   10.3016   -9.5488   -1.2070 N   0  0  0  0  0  0
    9.4870   -7.5199   -2.6286 N   0  0  0  0  0  0
    7.6654   -5.6313    8.1589 C   0  0  0  0  0  0
    7.2197   -4.8513    6.1139 C   0  0  0  0  0  0
    8.4275   -3.9629    6.4431 C   0  0  0  0  0  0
    9.6089   -4.0175    5.3843 C   0  0  0  0  0  0
    9.6489   -5.1759    4.4073 C   0  0  0  0  0  0
    9.6509   -4.9857    2.9615 C   0  0  0  0  0  0
    9.8127   -6.1137    2.1023 C   0  0  0  0  0  0
    9.9595   -7.4445    2.6478 C   0  0  0  0  0  0
    9.8728   -7.6280    4.0997 C   0  0  0  0  0  0
    9.7227   -6.5040    4.9720 C   0  0  0  0  0  0
   11.3150   -9.2022    1.2302 C   0  0  0  0  0  0
   10.7485  -10.1294    0.1345 C   0  0  0  0  0  0
    9.9393  -10.7162   -2.1366 C   0  0  0  0  0  0
   10.3310   -8.0158   -1.6439 C   0  0  0  0  0  0
    9.4459   -6.2206   -3.0276 C   0  0  0  0  0  0
   10.3212   -5.2375   -2.4271 C   0  0  0  0  0  0
   11.2321   -5.6598   -1.4062 C   0  0  0  0  0  0
   11.2450   -7.0405   -1.0121 C   0  0  0  0  0  0
    6.1863   -6.3927    6.9861 H   0  0  0  0  0  0
  1  8  1  0  0  0
  1 10  1  0  0  0
  2  8  2  0  0  0
  3  9  2  0  0  0
  4 15  1  0  0  0
  4 18  1  0  0  0
  5  8  1  0  0  0
  5  9  1  0  0  0
  5 26  1  0  0  0
  6 19  1  0  0  0
  6 20  1  0  0  0
  6 21  1  0  0  0
  7 21  2  0  0  0
  7 22  1  0  0  0
  9 10  1  0  0  0
 10 11  1  0  0  0
 11 12  1  0  0  0
 12 13  2  0  0  0
 12 17  1  0  0  0
 13 14  1  0  0  0
 14 15  2  0  0  0
 15 16  1  0  0  0
 16 17  2  0  0  0
 18 19  1  0  0  0
 21 25  1  0  0  0
 22 23  2  0  0  0
 23 24  1  0  0  0
 24 25  2  0  0  0
M  END
>  <CHROM.0>
50.52239433,76.06880743,-160.92588324,-8.96260692,179.26567568

>  <CHROM.1>
110.06737859,174.26132193,173.72358267,-155.70165826,107.10275689,122.79817915
67.87992853,9.38737940,-6.53291030,2.88616662,2.90546340,-1.32974431,2.56842585

>  <FORMUL>
      BRL    C18 H19 N3 O3 S1

>  <HET>
 BRL  A   1      25

>  <HETNAM>
     BRL 2,4-THIAZOLIDIINEDIONE, 5-[[4-[2-(METHYL-2-PYRIDINYLAMI
   2 BRL NO)ETHOXY]PHENYL]METHYL]-(9CL)

>  <HETSYN>
     BRL BRL49653; ROSIGLITAZONE

>  <Name>
BRL.pdb

>  <RI>
0

>  <Rbt.Current_Directory>
/home/malgorzata/Desktop/rDOCK_IFD/Wyniki/13_ppar-gamma

>  <Rbt.Executable>
rbdock ($Id: //depot/dev/client3/rdock/2013.1/src/exe/rbdock.cxx#4 $)

>  <Rbt.Library>
libRbt.so (2013.1, Build901 2013/11/27)

>  <Rbt.Parameter_File>
/home/malgorzata/Desktop/rDock_2013.1_src/data/scripts/soft_docking.prm

>  <Rbt.Receptor>
cavity.prm

>  <SCORE>
-22.3265

>  <SCORE.INTER>
-21.9509

>  <SCORE.INTER.CONST>
1

>  <SCORE.INTER.POLAR>
0

>  <SCORE.INTER.REPUL>
0

>  <SCORE.INTER.ROT>
7

>  <SCORE.INTER.VDW>
-34.3509

>  <SCORE.INTER.norm>
-0.878038

>  <SCORE.INTRA>
0.983164

>  <SCORE.INTRA.DIHEDRAL>
9.51934

>  <SCORE.INTRA.DIHEDRAL.0>
5.55665

>  <SCORE.INTRA.POLAR>
0

>  <SCORE.INTRA.POLAR.0>
0

>  <SCORE.INTRA.REPUL>
0

>  <SCORE.INTRA.REPUL.0>
0

>  <SCORE.INTRA.VDW>
-0.920704

>  <SCORE.INTRA.VDW.0>
-2.56587

>  <SCORE.INTRA.norm>
0.0393266

>  <SCORE.RESTR>
0

>  <SCORE.RESTR.CAVITY>
0

>  <SCORE.RESTR.norm>
0

>  <SCORE.SYSTEM>
-1.35873

>  <SCORE.SYSTEM.CONST>
0

>  <SCORE.SYSTEM.DIHEDRAL>
3.35849

>  <SCORE.SYSTEM.POLAR>
-0.339582

>  <SCORE.SYSTEM.REPUL>
0.17871

>  <SCORE.SYSTEM.VDW>
-2.77694

>  <SCORE.SYSTEM.norm>
-0.0543491

>  <SCORE.heavy>
25

>  <SCORE.norm>
-0.89306

$$$$
BRL.pdb
  rDOCK(R)          3D
libRbt.so/2013.1/901 2013/11/27
 26 28  0  0  0  0  0  0  0  0999 V2000
   12.6077   -6.6951   12.1689 S   0  0  0  0  0  0
   12.5105   -4.0242   12.2016 O   0  0  0  0  0  0
   16.1710   -6.0875   13.7353 O   0  0  0  0  0  0
   12.0679  -12.9635   10.2364 O   0  0  0  0  0  0
   14.4188   -4.8613   12.9658 N   0  0  0  0  0  0
    9.4226  -11.0437    9.0397 N   0  0  0  0  0  0
    6.8224  -11.1807    8.8931 N   0  0  0  0  0  0
   13.2012   -5.0073   12.4671 C   0  0  0  0  0  0
   15.0564   -6.0185   13.1915 C   0  0  0  0  0  0
   14.2677   -7.2624   12.7588 C   0  0  0  0  0  0
   15.0172   -8.2061   11.7256 C   0  0  0  0  0  0
   14.3251   -9.4781   11.2771 C   0  0  0  0  0  0
   14.3585  -10.7090   12.0584 C   0  0  0  0  0  0
   13.5846  -11.8320   11.6378 C   0  0  0  0  0  0
   12.7800  -11.7689   10.4383 C   0  0  0  0  0  0
   12.8222  -10.5529    9.6207 C   0  0  0  0  0  0
   13.5846   -9.4163   10.0377 C   0  0  0  0  0  0
   10.6614  -13.2377    9.8992 C   0  0  0  0  0  0
   10.3580  -12.2235    8.7764 C   0  0  0  0  0  0
   10.1799   -9.7495    8.7083 C   0  0  0  0  0  0
    7.9638  -11.1032    9.6801 C   0  0  0  0  0  0
    5.5544  -11.2595    9.3777 C   0  0  0  0  0  0
    5.3095  -11.2619   10.8037 C   0  0  0  0  0  0
    6.4280  -11.1779   11.6938 C   0  0  0  0  0  0
    7.7517  -11.0965   11.1432 C   0  0  0  0  0  0
   14.8198   -3.9821   13.1539 H   0  0  0  0  0  0
  1  8  1  0  0  0
  1 10  1  0  0  0
  2  8  2  0  0  0
  3  9  2  0  0  0
  4 15  1  0  0  0
  4 18  1  0  0  0
  5  8  1  0  0  0
  5  9  1  0  0  0
  5 26  1  0  0  0
  6 19  1  0  0  0
  6 20  1  0  0  0
  6 21  1  0  0  0
  7 21  2  0  0  0
  7 22  1  0  0  0
  9 10  1  0  0  0
 10 11  1  0  0  0
 11 12  1  0  0  0
 12 13  2  0  0  0
 12 17  1  0  0  0
 13 14  1  0  0  0
 14 15  2  0  0  0
 15 16  1  0  0  0
 16 17  2  0  0  0
 18 19  1  0  0  0
 21 25  1  0  0  0
 22 23  2  0  0  0
 23 24  1  0  0  0
 24 25  2  0  0  0
M  END
>  <CHROM.0>
91.99720893,112.31773378,93.69881518,71.61390206,-164.55748189

>  <CHROM.1>
132.92094061,44.54597756,123.83325605,-93.90190255,-57.28797181,-82.80620255
-109.80279649,11.58033302,-9.33959316,11.04604901,0.73778219,-0.12856163
0.34240626

>  <FORMUL>
      BRL    C18 H19 N3 O3 S1

>  <HET>
 BRL  A   1      25

>  <HETNAM>
     BRL 2,4-THIAZOLIDIINEDIONE, 5-[[4-[2-(METHYL-2-PYRIDINYLAMI
   2 BRL NO)ETHOXY]PHENYL]METHYL]-(9CL)

>  <HETSYN>
     BRL BRL49653; ROSIGLITAZONE

>  <Name>
BRL.pdb

>  <RI>
0

>  <Rbt.Current_Directory>
/home/malgorzata/Desktop/rDOCK_IFD/Wyniki/13_ppar-gamma

>  <Rbt.Executable>
rbdock ($Id: //depot/dev/client3/rdock/2013.1/src/exe/rbdock.cxx#4 $)

>  <Rbt.Library>
libRbt.so (2013.1, Build901 2013/11/27)

>  <Rbt.Parameter_File>
/home/malgorzata/Desktop/rDock_2013.1_src/data/scripts/soft_docking.prm

>  <Rbt.Receptor>
cavity.prm

>  <SCORE>
-14.9826

>  <SCORE.INTER>
-26.4332

>  <SCORE.INTER.CONST>
1

>  <SCORE.INTER.POLAR>
-0.0739797

>  <SCORE.INTER.REPUL>
0.221411

>  <SCORE.INTER.ROT>
7

>  <SCORE.INTER.VDW>
-39.6887

>  <SCORE.INTER.norm>
-1.05733

>  <SCORE.INTRA>
5.3885

>  <SCORE.INTRA.DIHEDRAL>
19.1832

>  <SCORE.INTRA.DIHEDRAL.0>
5.55665

>  <SCORE.INTRA.POLAR>
0

>  <SCORE.INTRA.POLAR.0>
0

>  <SCORE.INTRA.REPUL>
0

>  <SCORE.INTRA.REPUL.0>
0

>  <SCORE.INTRA.VDW>
1.55187

>  <SCORE.INTRA.VDW.0>
-2.56587

>  <SCORE.INTRA.norm>
0.21554

>  <SCORE.RESTR>
0.795896

>  <SCORE.RESTR.CAVITY>
0.159179

>  <SCORE.RESTR.norm>
0.0318358

>  <SCORE.SYSTEM>
5.26623

>  <SCORE.SYSTEM.CONST>
0

>  <SCORE.SYSTEM.DIHEDRAL>
16.305

>  <SCORE.SYSTEM.POLAR>
-0.191383

>  <SCORE.SYSTEM.REPUL>
0.17871

>  <SCORE.SYSTEM.VDW>
-3.12912

>  <SCORE.SYSTEM.norm>
0.210649

>  <SCORE.heavy>
25

>  <SCORE.norm>
-0.599303

$$$$
BRL.pdb
  rDOCK(R)          3D
libRbt.so/2013.1/901 2013/11/27
 26 28  0  0  0  0  0  0  0  0999 V2000
   10.8019   -1.4885    9.6450 S   0  0  0  0  0  0
   11.9411   -2.5615    7.4781 O   0  0  0  0  0  0
   14.2977   -2.2981   11.2710 O   0  0  0  0  0  0
   10.4620   -8.0497   11.7620 O   0  0  0  0  0  0
   13.2520   -2.5534    9.2692 N   0  0  0  0  0  0
    9.2712  -11.1696   10.2173 N   0  0  0  0  0  0
   10.8291  -13.1552    9.5605 N   0  0  0  0  0  0
   12.1083   -2.2753    8.6631 C   0  0  0  0  0  0
   13.2837   -2.1969   10.5609 C   0  0  0  0  0  0
   11.9647   -1.6073   11.0800 C   0  0  0  0  0  0
   11.3445   -2.3540   12.3361 C   0  0  0  0  0  0
   11.1729   -3.8586   12.2684 C   0  0  0  0  0  0
   10.0275   -4.5467   12.8526 C   0  0  0  0  0  0
    9.8677   -5.9498   12.6463 C   0  0  0  0  0  0
   10.8357   -6.6999   11.8779 C   0  0  0  0  0  0
   12.0235   -6.0087   11.3675 C   0  0  0  0  0  0
   12.1892   -4.6004   11.5575 C   0  0  0  0  0  0
   10.8484   -9.1106   10.8174 C   0  0  0  0  0  0
    9.9902  -10.3143   11.2602 C   0  0  0  0  0  0
    7.7586  -11.0215   10.4376 C   0  0  0  0  0  0
    9.9425  -12.1622    9.1657 C   0  0  0  0  0  0
   11.4145  -14.0473    8.7176 C   0  0  0  0  0  0
   11.1399  -14.0085    7.2975 C   0  0  0  0  0  0
   10.2415  -13.0118    6.7976 C   0  0  0  0  0  0
    9.6432  -12.0880    7.7198 C   0  0  0  0  0  0
   14.0108   -2.9832    8.8123 H   0  0  0  0  0  0
  1  8  1  0  0  0
  1 10  1  0  0  0
  2  8  2  0  0  0
  3  9  2  0  0  0
  4 15  1  0  0  0
  4 18  1  0  0  0
  5  8  1  0  0  0
  5  9  1  0  0  0
  5 26  1  0  0  0
  6 19  1  0  0  0
  6 20  1  0  0  0
  6 21  1  0  0  0
  7 21  2  0  0  0
  7 22  1  0  0  0
  9 10  1  0  0  0
 10 11  1  0  0  0
 11 12  1  0  0  0
 12 13  2  0  0  0
 12 17  1  0  0  0
 13 14  1  0  0  0
 14 15  2  0  0  0
 15 16  1  0  0  0
 16 17  2  0  0  0
 18 19  1  0  0  0
 21 25  1  0  0  0
 22 23  2  0  0  0
 23 24  1  0  0  0
 24 25  2  0  0  0
M  END
>  <CHROM.0>
-71.71464359,36.60367004,69.39275852,162.99281697,-70.85252830

>  <CHROM.1>
159.83580482,-177.41373835,-115.76544976,52.87868261,73.32426276,-142.70091290
135.61274791,11.06274073,-6.76860381,10.22850131,-1.10631516,-1.15699424
-2.56439049

>  <FORMUL>
      BRL    C18 H19 N3 O3 S1

>  <HET>
 BRL  A   1      25

>  <HETNAM>
     BRL 2,4-THIAZOLIDIINEDIONE, 5-[[4-[2-(METHYL-2-PYRIDINYLAMI
   2 BRL NO)ETHOXY]PHENYL]METHYL]-(9CL)

>  <HETSYN>
     BRL BRL49653; ROSIGLITAZONE

>  <Name>
BRL.pdb

>  <RI>
0

>  <Rbt.Current_Directory>
/home/malgorzata/Desktop/rDOCK_IFD/Wyniki/13_ppar-gamma

>  <Rbt.Executable>
rbdock ($Id: //depot/dev/client3/rdock/2013.1/src/exe/rbdock.cxx#4 $)

>  <Rbt.Library>
libRbt.so (2013.1, Build901 2013/11/27)

>  <Rbt.Parameter_File>
/home/malgorzata/Desktop/rDock_2013.1_src/data/scripts/soft_docking.prm

>  <Rbt.Receptor>
cavity.prm

>  <SCORE>
-21.8532

>  <SCORE.INTER>
-27.7129

>  <SCORE.INTER.CONST>
1

>  <SCORE.INTER.POLAR>
-1.45987

>  <SCORE.INTER.REPUL>
0

>  <SCORE.INTER.ROT>
7

>  <SCORE.INTER.VDW>
-35.1494

>  <SCORE.INTER.norm>
-1.10852

>  <SCORE.INTRA>
2.92036

>  <SCORE.INTRA.DIHEDRAL>
12.0808

>  <SCORE.INTRA.DIHEDRAL.0>
5.55665

>  <SCORE.INTRA.POLAR>
0

>  <SCORE.INTRA.POLAR.0>
0

>  <SCORE.INTRA.REPUL>
0

>  <SCORE.INTRA.REPUL.0>
0

>  <SCORE.INTRA.VDW>
0.504192

>  <SCORE.INTRA.VDW.0>
-2.56587

>  <SCORE.INTRA.norm>
0.116814

>  <SCORE.RESTR>
1.56001

>  <SCORE.RESTR.CAVITY>
0.312002

>  <SCORE.RESTR.norm>
0.0624004

>  <SCORE.SYSTEM>
1.37932

>  <SCORE.SYSTEM.CONST>
0

>  <SCORE.SYSTEM.DIHEDRAL>
7.86157

>  <SCORE.SYSTEM.POLAR>
-0.162609

>  <SCORE.SYSTEM.REPUL>
0.17871

>  <SCORE.SYSTEM.VDW>
-2.89215

>  <SCORE.SYSTEM.norm>
0.0551727

>  <SCORE.heavy>
25

>  <SCORE.norm>
-0.87413

$$$$
BRL.pdb
  rDOCK(R)          3D
libRbt.so/2013.1/901 2013/11/27
 26 28  0  0  0  0  0  0  0  0999 V2000
   12.4407   -5.2073   11.2193 S   0  0  0  0  0  0
   11.7277   -6.4208   13.4915 O   0  0  0  0  0  0
   15.0965   -3.4789   13.5602 O   0  0  0  0  0  0
    9.6410   -2.0205    6.7285 O   0  0  0  0  0  0
   13.3902   -4.9704   13.7334 N   0  0  0  0  0  0
   11.5953   -1.2297    4.2649 N   0  0  0  0  0  0
   10.8099   -3.6959    4.5841 N   0  0  0  0  0  0
   12.4985   -5.6045   12.9881 C   0  0  0  0  0  0
   14.1505   -4.1025   13.0513 C   0  0  0  0  0  0
   13.7792   -3.9771   11.5670 C   0  0  0  0  0  0
   13.4263   -2.5061   11.0857 C   0  0  0  0  0  0
   12.5113   -2.3389    9.8888 C   0  0  0  0  0  0
   12.2452   -3.4184    8.9452 C   0  0  0  0  0  0
   11.2796   -3.2290    7.9114 C   0  0  0  0  0  0
   10.5732   -1.9746    7.7792 C   0  0  0  0  0  0
   10.9120   -0.8725    8.6846 C   0  0  0  0  0  0
   11.8694   -1.0536    9.7322 C   0  0  0  0  0  0
    9.3214   -1.0809    5.6413 C   0  0  0  0  0  0
   10.6966   -0.4944    5.2589 C   0  0  0  0  0  0
   12.5697   -0.2105    3.6564 C   0  0  0  0  0  0
   11.4750   -2.7534    3.8114 C   0  0  0  0  0  0
   10.6511   -5.0022    4.2415 C   0  0  0  0  0  0
   11.1945   -5.5095    3.0003 C   0  0  0  0  0  0
   11.9037   -4.6097    2.1412 C   0  0  0  0  0  0
   12.0497   -3.2375    2.5381 C   0  0  0  0  0  0
   13.4862   -5.1225   14.7013 H   0  0  0  0  0  0
  1  8  1  0  0  0
  1 10  1  0  0  0
  2  8  2  0  0  0
  3  9  2  0  0  0
  4 15  1  0  0  0
  4 18  1  0  0  0
  5  8  1  0  0  0
  5  9  1  0  0  0
  5 26  1  0  0  0
  6 19  1  0  0  0
  6 20  1  0  0  0
  6 21  1  0  0  0
  7 21  2  0  0  0
  7 22  1  0  0  0
  9 10  1  0  0  0
 10 11  1  0  0  0
 11 12  1  0  0  0
 12 13  2  0  0  0
 12 17  1  0  0  0
 13 14  1  0  0  0
 14 15  2  0  0  0
 15 16  1  0  0  0
 16 17  2  0  0  0
 18 19  1  0  0  0
 21 25  1  0  0  0
 22 23  2  0  0  0
 23 24  1  0  0  0
 24 25  2  0  0  0
M  END
>  <CHROM.0>
-143.29918336,-82.57532837,83.27715783,-153.22263556,173.84737576

>  <CHROM.1>
-134.51191687,36.72045717,157.54315239,-21.35603645,-29.68047473,-17.62020392
85.16231057,11.94375012,-3.26144903,8.19862307,-0.12821713,1.34611848,-2.79544809

>  <FORMUL>
      BRL    C18 H19 N3 O3 S1

>  <HET>
 BRL  A   1      25

>  <HETNAM>
     BRL 2,4-THIAZOLIDIINEDIONE, 5-[[4-[2-(METHYL-2-PYRIDINYLAMI
   2 BRL NO)ETHOXY]PHENYL]METHYL]-(9CL)

>  <HETSYN>
     BRL BRL49653; ROSIGLITAZONE

>  <Name>
BRL.pdb

>  <RI>
0

>  <Rbt.Current_Directory>
/home/malgorzata/Desktop/rDOCK_IFD/Wyniki/13_ppar-gamma

>  <Rbt.Executable>
rbdock ($Id: //depot/dev/client3/rdock/2013.1/src/exe/rbdock.cxx#4 $)

>  <Rbt.Library>
libRbt.so (2013.1, Build901 2013/11/27)

>  <Rbt.Parameter_File>
/home/malgorzata/Desktop/rDock_2013.1_src/data/scripts/soft_docking.prm

>  <Rbt.Receptor>
cavity.prm

>  <SCORE>
-20.6592

>  <SCORE.INTER>
-23.6815

>  <SCORE.INTER.CONST>
1

>  <SCORE.INTER.POLAR>
-1.20945

>  <SCORE.INTER.REPUL>
0.234159

>  <SCORE.INTER.ROT>
7

>  <SCORE.INTER.VDW>
-33.1402

>  <SCORE.INTER.norm>
-0.947259

>  <SCORE.INTRA>
2.90542

>  <SCORE.INTRA.DIHEDRAL>
8.10237

>  <SCORE.INTRA.DIHEDRAL.0>
5.55665

>  <SCORE.INTRA.POLAR>
0

>  <SCORE.INTRA.POLAR.0>
0

>  <SCORE.INTRA.REPUL>
0

>  <SCORE.INTRA.REPUL.0>
0

>  <SCORE.INTRA.VDW>
1.28495

>  <SCORE.INTRA.VDW.0>
-2.56587

>  <SCORE.INTRA.norm>
0.116217

>  <SCORE.RESTR>
0

>  <SCORE.RESTR.CAVITY>
0

>  <SCORE.RESTR.norm>
0

>  <SCORE.SYSTEM>
0.116874

>  <SCORE.SYSTEM.CONST>
0

>  <SCORE.SYSTEM.DIHEDRAL>
6.04647

>  <SCORE.SYSTEM.POLAR>
-0.298172

>  <SCORE.SYSTEM.REPUL>
0.17871

>  <SCORE.SYSTEM.VDW>
-2.78613

>  <SCORE.SYSTEM.norm>
0.00467498

>  <SCORE.heavy>
25

>  <SCORE.norm>
-0.826368

$$$$
