TOL.pdb
  rDOCK(R)          3D
libRbt.so/2013.1/901 2013/11/27
 25 26  0  0  0  0  0  0  0  0999 V2000
   22.2130   18.0282   73.7583 C   0  0  0  0  0  0
   22.7910   16.8786   73.3281 F   0  0  0  0  0  0
   21.4227   18.4757   72.7467 F   0  0  0  0  0  0
   21.3976   17.7245   74.8032 F   0  0  0  0  0  0
   23.2697   19.0741   74.1752 C   0  0  0  0  0  0
   24.6676   18.8293   74.1732 C   0  0  0  0  0  0
   25.1240   17.6480   73.7980 O   0  0  0  0  0  0
   25.4722   16.8166   74.8928 C   0  0  0  0  0  0
   25.5504   19.8548   74.5771 C   0  0  0  0  0  0
   25.0626   21.1041   74.9766 C   0  0  0  0  0  0
   23.6753   21.3502   74.9822 C   0  0  0  0  0  0
   23.1949   22.6168   75.3896 C   0  0  0  0  0  0
   21.8120   22.8618   75.3938 C   0  0  0  0  0  0
   20.9160   21.8649   75.0013 C   0  0  0  0  0  0
   21.3965   20.6127   74.5981 C   0  0  0  0  0  0
   22.7774   20.3418   74.5842 C   0  0  0  0  0  0
   24.0908   23.7510   75.8287 C   0  0  0  0  0  0
   24.4110   25.0400   74.7460 S   0  0  0  0  0  0
   24.6092   23.7426   77.0577 N   0  0  0  0  0  0
   24.2353   22.6896   77.9953 C   0  0  0  0  0  0
   25.5358   24.7778   77.5048 C   0  0  0  0  0  0
   26.9786   24.4746   77.0658 C   0  0  0  0  0  0
   27.2469   24.1049   75.9530 O   0  0  0  0  0  0
   27.9141   24.6575   78.0043 O   0  0  0  0  0  0
   27.6692   24.9565   78.8578 H   0  0  0  0  0  0
  1  2  1  0  0  0
  1  3  1  0  0  0
  1  4  1  0  0  0
  1  5  1  0  0  0
  5  6  2  0  0  0
  5 16  1  0  0  0
  6  7  1  0  0  0
  6  9  1  0  0  0
  7  8  1  0  0  0
  9 10  2  0  0  0
 10 11  1  0  0  0
 11 12  2  0  0  0
 11 16  1  0  0  0
 12 13  1  0  0  0
 12 17  1  0  0  0
 13 14  2  0  0  0
 14 15  1  0  0  0
 15 16  2  0  0  0
 17 18  2  0  0  0
 17 19  1  0  0  0
 19 20  1  0  0  0
 19 21  1  0  0  0
 21 22  1  0  0  0
 22 23  2  0  0  0
 22 24  1  0  0  0
 24 25  1  0  0  0
M  END
>  <CHROM.0>
-77.16853605,146.60080604,9.58755312,63.08769970,169.24355652,72.38314576
-59.47358397,63.23997588,-61.54190337,-68.93543219,-61.41326028,-60.50081437
-117.03876182

>  <CHROM.1>
-3.14126534,-100.72584140,102.37581558,-83.44780248,44.95843435,-0.39762607
24.00474283,21.21270141,75.17486237,1.98949973,0.26841294,-2.85402701

>  <FORMUL>
      TOL    C16 H14 F3 N1 O3 S1

>  <HET>
 TOL  A 320      24

>  <HETNAM>
     TOL TOLRESTAT

>  <Name>
TOL.pdb

>  <RI>
0

>  <Rbt.Current_Directory>
/home/malgorzata/Desktop/rDOCK_IFD/Wyniki/1b_aldose_reductase/IFD

>  <Rbt.Executable>
rbdock ($Id: //depot/dev/client3/rdock/2013.1/src/exe/rbdock.cxx#4 $)

>  <Rbt.Library>
libRbt.so (2013.1, Build901 2013/11/27)

>  <Rbt.Parameter_File>
/home/malgorzata/Desktop/rDock_2013.1_src/data/scripts/hard_docking.prm

>  <Rbt.Receptor>
cavity.prm

>  <SCORE>
-23.5385

>  <SCORE.INTER>
-11.2204

>  <SCORE.INTER.CONST>
1

>  <SCORE.INTER.POLAR>
-0.0185583

>  <SCORE.INTER.REPUL>
0

>  <SCORE.INTER.ROT>
5

>  <SCORE.INTER.VDW>
-21.5573

>  <SCORE.INTER.norm>
-0.467517

>  <SCORE.INTRA>
-5.35294

>  <SCORE.INTRA.DIHEDRAL>
4.29596

>  <SCORE.INTRA.DIHEDRAL.0>
16.9783

>  <SCORE.INTRA.POLAR>
0

>  <SCORE.INTRA.POLAR.0>
0

>  <SCORE.INTRA.REPUL>
0

>  <SCORE.INTRA.REPUL.0>
0

>  <SCORE.INTRA.VDW>
-7.50091

>  <SCORE.INTRA.VDW.0>
4.87734

>  <SCORE.INTRA.norm>
-0.223039

>  <SCORE.RESTR>
0

>  <SCORE.RESTR.CAVITY>
0

>  <SCORE.RESTR.norm>
0

>  <SCORE.SYSTEM>
-6.96517

>  <SCORE.SYSTEM.CONST>
0

>  <SCORE.SYSTEM.DIHEDRAL>
4.80587

>  <SCORE.SYSTEM.POLAR>
-1.66958

>  <SCORE.SYSTEM.VDW>
-3.69152

>  <SCORE.SYSTEM.norm>
-0.290215

>  <SCORE.heavy>
24

>  <SCORE.norm>
-0.980772

$$$$
TOL.pdb
  rDOCK(R)          3D
libRbt.so/2013.1/901 2013/11/27
 25 26  0  0  0  0  0  0  0  0999 V2000
   26.4921   24.8502   77.0878 C   0  0  0  0  0  0
   25.3078   25.4633   76.8381 F   0  0  0  0  0  0
   27.4658   25.6480   76.5747 F   0  0  0  0  0  0
   26.6706   24.8113   78.4351 F   0  0  0  0  0  0
   26.5326   23.4273   76.4894 C   0  0  0  0  0  0
   27.5436   22.9708   75.6042 C   0  0  0  0  0  0
   28.5213   23.7860   75.2522 O   0  0  0  0  0  0
   29.7103   23.5772   75.9962 C   0  0  0  0  0  0
   27.4856   21.6492   75.1100 C   0  0  0  0  0  0
   26.4464   20.7895   75.4834 C   0  0  0  0  0  0
   25.4396   21.2398   76.3600 C   0  0  0  0  0  0
   24.3939   20.3614   76.7285 C   0  0  0  0  0  0
   23.3911   20.8106   77.6034 C   0  0  0  0  0  0
   23.4226   22.1135   78.1057 C   0  0  0  0  0  0
   24.4604   22.9793   77.7384 C   0  0  0  0  0  0
   25.4775   22.5537   76.8640 C   0  0  0  0  0  0
   24.2817   18.9384   76.2343 C   0  0  0  0  0  0
   23.8487   18.6443   74.6027 S   0  0  0  0  0  0
   24.5351   17.9295   77.0693 N   0  0  0  0  0  0
   25.0053   18.2081   78.4217 C   0  0  0  0  0  0
   24.3723   16.5380   76.6603 C   0  0  0  0  0  0
   22.9836   15.9951   77.0387 C   0  0  0  0  0  0
   22.1535   15.7230   76.2117 O   0  0  0  0  0  0
   22.7661   15.8398   78.3494 O   0  0  0  0  0  0
   23.4334   16.0700   78.9655 H   0  0  0  0  0  0
  1  2  1  0  0  0
  1  3  1  0  0  0
  1  4  1  0  0  0
  1  5  1  0  0  0
  5  6  2  0  0  0
  5 16  1  0  0  0
  6  7  1  0  0  0
  6  9  1  0  0  0
  7  8  1  0  0  0
  9 10  2  0  0  0
 10 11  1  0  0  0
 11 12  2  0  0  0
 11 16  1  0  0  0
 12 13  1  0  0  0
 12 17  1  0  0  0
 13 14  2  0  0  0
 14 15  1  0  0  0
 15 16  2  0  0  0
 17 18  2  0  0  0
 17 19  1  0  0  0
 19 20  1  0  0  0
 19 21  1  0  0  0
 21 22  1  0  0  0
 22 23  2  0  0  0
 22 24  1  0  0  0
 24 25  1  0  0  0
M  END
>  <CHROM.0>
-76.67476200,148.72224240,9.11180142,65.31036591,-58.60790417,-73.82517128
-59.47358397,-175.70323434,-61.54190337,-171.27071677,-61.41326028,-60.50081437
-92.44375358

>  <CHROM.1>
125.41009855,98.94110808,-71.69110522,-94.07410039,111.54373234,0.93494799
25.32749906,21.01496046,76.63366522,0.96580748,0.65234009,0.37535679

>  <FORMUL>
      TOL    C16 H14 F3 N1 O3 S1

>  <HET>
 TOL  A 320      24

>  <HETNAM>
     TOL TOLRESTAT

>  <Name>
TOL.pdb

>  <RI>
0

>  <Rbt.Current_Directory>
/home/malgorzata/Desktop/rDOCK_IFD/Wyniki/1b_aldose_reductase/IFD

>  <Rbt.Executable>
rbdock ($Id: //depot/dev/client3/rdock/2013.1/src/exe/rbdock.cxx#4 $)

>  <Rbt.Library>
libRbt.so (2013.1, Build901 2013/11/27)

>  <Rbt.Parameter_File>
/home/malgorzata/Desktop/rDock_2013.1_src/data/scripts/hard_docking.prm

>  <Rbt.Receptor>
cavity.prm

>  <SCORE>
-17.3813

>  <SCORE.INTER>
-4.79048

>  <SCORE.INTER.CONST>
1

>  <SCORE.INTER.POLAR>
-0.55285

>  <SCORE.INTER.REPUL>
0

>  <SCORE.INTER.ROT>
5

>  <SCORE.INTER.VDW>
-13.3108

>  <SCORE.INTER.norm>
-0.199603

>  <SCORE.INTRA>
-4.94143

>  <SCORE.INTRA.DIHEDRAL>
3.69433

>  <SCORE.INTRA.DIHEDRAL.0>
16.9783

>  <SCORE.INTRA.POLAR>
0

>  <SCORE.INTRA.POLAR.0>
0

>  <SCORE.INTRA.REPUL>
0

>  <SCORE.INTRA.REPUL.0>
0

>  <SCORE.INTRA.VDW>
-6.78859

>  <SCORE.INTRA.VDW.0>
4.87734

>  <SCORE.INTRA.norm>
-0.205893

>  <SCORE.RESTR>
0

>  <SCORE.RESTR.CAVITY>
0

>  <SCORE.RESTR.norm>
0

>  <SCORE.SYSTEM>
-7.64937

>  <SCORE.SYSTEM.CONST>
0

>  <SCORE.SYSTEM.DIHEDRAL>
4.10952

>  <SCORE.SYSTEM.POLAR>
-1.67057

>  <SCORE.SYSTEM.VDW>
-4.0242

>  <SCORE.SYSTEM.norm>
-0.318724

>  <SCORE.heavy>
24

>  <SCORE.norm>
-0.72422

$$$$
TOL.pdb
  rDOCK(R)          3D
libRbt.so/2013.1/901 2013/11/27
 25 26  0  0  0  0  0  0  0  0999 V2000
   28.5008   26.2746   78.4976 C   0  0  0  0  0  0
   27.4806   26.0973   79.3743 F   0  0  0  0  0  0
   28.1052   27.2344   77.6199 F   0  0  0  0  0  0
   29.5650   26.7696   79.1841 F   0  0  0  0  0  0
   28.8743   24.9561   77.7862 C   0  0  0  0  0  0
   30.0754   24.2401   78.0286 C   0  0  0  0  0  0
   30.9456   24.7017   78.9084 O   0  0  0  0  0  0
   30.8870   24.0233   80.1523 C   0  0  0  0  0  0
   30.3229   23.0437   77.3203 C   0  0  0  0  0  0
   29.3995   22.5595   76.3869 C   0  0  0  0  0  0
   28.2071   23.2687   76.1417 C   0  0  0  0  0  0
   27.2826   22.7694   75.1947 C   0  0  0  0  0  0
   26.0935   23.4763   74.9517 C   0  0  0  0  0  0
   25.8241   24.6635   75.6364 C   0  0  0  0  0  0
   26.7422   25.1535   76.5736 C   0  0  0  0  0  0
   27.9406   24.4640   76.8361 C   0  0  0  0  0  0
   27.4923   21.4956   74.4102 C   0  0  0  0  0  0
   28.4055   21.5387   72.9610 S   0  0  0  0  0  0
   26.9768   20.3514   74.8624 N   0  0  0  0  0  0
   26.2956   20.3225   76.1520 C   0  0  0  0  0  0
   27.0912   19.1085   74.1061 C   0  0  0  0  0  0
   25.7695   18.7472   73.4069 C   0  0  0  0  0  0
   24.7037   19.1335   73.8093 O   0  0  0  0  0  0
   25.8880   17.9804   72.3172 O   0  0  0  0  0  0
   26.7312   17.6681   72.0536 H   0  0  0  0  0  0
  1  2  1  0  0  0
  1  3  1  0  0  0
  1  4  1  0  0  0
  1  5  1  0  0  0
  5  6  2  0  0  0
  5 16  1  0  0  0
  6  7  1  0  0  0
  6  9  1  0  0  0
  7  8  1  0  0  0
  9 10  2  0  0  0
 10 11  1  0  0  0
 11 12  2  0  0  0
 11 16  1  0  0  0
 12 13  1  0  0  0
 12 17  1  0  0  0
 13 14  2  0  0  0
 14 15  1  0  0  0
 15 16  2  0  0  0
 17 18  2  0  0  0
 17 19  1  0  0  0
 19 20  1  0  0  0
 19 21  1  0  0  0
 21 22  1  0  0  0
 22 23  2  0  0  0
 22 24  1  0  0  0
 24 25  1  0  0  0
M  END
>  <CHROM.0>
-76.53688797,148.28008604,-177.52207731,179.88133124,-59.37754632,-33.88689753
-59.47358397,62.46919680,-61.54190337,60.57673931,-61.41326028,-60.50081437
-95.27041003

>  <CHROM.1>
-109.29707809,101.76764167,-84.93889063,-103.60913130,-24.94520925,2.93217247
27.90355494,23.01263061,76.18945269,1.19390531,-0.47559579,0.51839035

>  <FORMUL>
      TOL    C16 H14 F3 N1 O3 S1

>  <HET>
 TOL  A 320      24

>  <HETNAM>
     TOL TOLRESTAT

>  <Name>
TOL.pdb

>  <RI>
0

>  <Rbt.Current_Directory>
/home/malgorzata/Desktop/rDOCK_IFD/Wyniki/1b_aldose_reductase/IFD

>  <Rbt.Executable>
rbdock ($Id: //depot/dev/client3/rdock/2013.1/src/exe/rbdock.cxx#4 $)

>  <Rbt.Library>
libRbt.so (2013.1, Build901 2013/11/27)

>  <Rbt.Parameter_File>
/home/malgorzata/Desktop/rDock_2013.1_src/data/scripts/hard_docking.prm

>  <Rbt.Receptor>
cavity.prm

>  <SCORE>
-19.7478

>  <SCORE.INTER>
-7.41259

>  <SCORE.INTER.CONST>
1

>  <SCORE.INTER.POLAR>
-0.632456

>  <SCORE.INTER.REPUL>
0

>  <SCORE.INTER.ROT>
5

>  <SCORE.INTER.VDW>
-15.6622

>  <SCORE.INTER.norm>
-0.308858

>  <SCORE.INTRA>
-4.24754

>  <SCORE.INTRA.DIHEDRAL>
4.80887

>  <SCORE.INTRA.DIHEDRAL.0>
16.9783

>  <SCORE.INTRA.POLAR>
0

>  <SCORE.INTRA.POLAR.0>
0

>  <SCORE.INTRA.REPUL>
0

>  <SCORE.INTRA.REPUL.0>
0

>  <SCORE.INTRA.VDW>
-6.65197

>  <SCORE.INTRA.VDW.0>
4.87734

>  <SCORE.INTRA.norm>
-0.176981

>  <SCORE.RESTR>
0

>  <SCORE.RESTR.CAVITY>
0

>  <SCORE.RESTR.norm>
0

>  <SCORE.SYSTEM>
-8.08763

>  <SCORE.SYSTEM.CONST>
0

>  <SCORE.SYSTEM.DIHEDRAL>
3.45983

>  <SCORE.SYSTEM.POLAR>
-1.66847

>  <SCORE.SYSTEM.VDW>
-4.14477

>  <SCORE.SYSTEM.norm>
-0.336985

>  <SCORE.heavy>
24

>  <SCORE.norm>
-0.822823

$$$$
TOL.pdb
  rDOCK(R)          3D
libRbt.so/2013.1/901 2013/11/27
 25 26  0  0  0  0  0  0  0  0999 V2000
   25.4206   24.1753   75.3060 C   0  0  0  0  0  0
   24.3969   24.8011   75.9396 F   0  0  0  0  0  0
   25.5361   24.7499   74.0794 F   0  0  0  0  0  0
   26.5658   24.4453   75.9874 F   0  0  0  0  0  0
   25.1853   22.6521   75.2135 C   0  0  0  0  0  0
   24.0038   22.0063   75.6619 C   0  0  0  0  0  0
   23.0294   22.7216   76.1942 O   0  0  0  0  0  0
   21.8082   22.6087   75.4823 C   0  0  0  0  0  0
   23.8904   20.6045   75.5345 C   0  0  0  0  0  0
   24.9263   19.8499   74.9724 C   0  0  0  0  0  0
   26.1017   20.4871   74.5283 C   0  0  0  0  0  0
   27.1421   19.7129   73.9633 C   0  0  0  0  0  0
   28.3131   20.3489   73.5197 C   0  0  0  0  0  0
   28.4529   21.7338   73.6355 C   0  0  0  0  0  0
   27.4198   22.4961   74.1950 C   0  0  0  0  0  0
   26.2362   21.8834   74.6465 C   0  0  0  0  0  0
   27.0757   18.2127   73.7992 C   0  0  0  0  0  0
   26.8780   17.5437   72.2342 S   0  0  0  0  0  0
   27.1863   17.4275   74.8719 N   0  0  0  0  0  0
   27.4610   18.0176   76.1773 C   0  0  0  0  0  0
   27.0581   15.9769   74.7753 C   0  0  0  0  0  0
   25.6496   15.5049   75.1747 C   0  0  0  0  0  0
   24.7202   15.5404   74.4118 O   0  0  0  0  0  0
   25.5318   15.0457   76.4256 O   0  0  0  0  0  0
   24.7038   14.7338   76.7341 H   0  0  0  0  0  0
  1  2  1  0  0  0
  1  3  1  0  0  0
  1  4  1  0  0  0
  1  5  1  0  0  0
  5  6  2  0  0  0
  5 16  1  0  0  0
  6  7  1  0  0  0
  6  9  1  0  0  0
  7  8  1  0  0  0
  9 10  2  0  0  0
 10 11  1  0  0  0
 11 12  2  0  0  0
 11 16  1  0  0  0
 12 13  1  0  0  0
 12 17  1  0  0  0
 13 14  2  0  0  0
 14 15  1  0  0  0
 15 16  2  0  0  0
 17 18  2  0  0  0
 17 19  1  0  0  0
 19 20  1  0  0  0
 19 21  1  0  0  0
 21 22  1  0  0  0
 22 23  2  0  0  0
 22 24  1  0  0  0
 24 25  1  0  0  0
M  END
>  <CHROM.0>
-77.30423232,147.88373698,-174.01633733,-73.69588211,66.89827305,-28.02396246
-59.47358397,-178.62039385,-61.54190337,62.50152096,-61.41326028,-60.50081437
-100.76197165

>  <CHROM.1>
3.72409446,120.12386356,107.74433795,-98.74128108,81.51242277,-179.40748445
25.82672604,20.31596529,74.78534269,-1.78995861,-0.49324049,-3.13577100

>  <FORMUL>
      TOL    C16 H14 F3 N1 O3 S1

>  <HET>
 TOL  A 320      24

>  <HETNAM>
     TOL TOLRESTAT

>  <Name>
TOL.pdb

>  <RI>
0

>  <Rbt.Current_Directory>
/home/malgorzata/Desktop/rDOCK_IFD/Wyniki/1b_aldose_reductase/IFD

>  <Rbt.Executable>
rbdock ($Id: //depot/dev/client3/rdock/2013.1/src/exe/rbdock.cxx#4 $)

>  <Rbt.Library>
libRbt.so (2013.1, Build901 2013/11/27)

>  <Rbt.Parameter_File>
/home/malgorzata/Desktop/rDock_2013.1_src/data/scripts/hard_docking.prm

>  <Rbt.Receptor>
cavity.prm

>  <SCORE>
-16.8662

>  <SCORE.INTER>
-4.60133

>  <SCORE.INTER.CONST>
1

>  <SCORE.INTER.POLAR>
-0.632456

>  <SCORE.INTER.REPUL>
0

>  <SCORE.INTER.ROT>
5

>  <SCORE.INTER.VDW>
-12.851

>  <SCORE.INTER.norm>
-0.191722

>  <SCORE.INTRA>
-5.12403

>  <SCORE.INTRA.DIHEDRAL>
2.68375

>  <SCORE.INTRA.DIHEDRAL.0>
16.9783

>  <SCORE.INTRA.POLAR>
0

>  <SCORE.INTRA.POLAR.0>
0

>  <SCORE.INTRA.REPUL>
0

>  <SCORE.INTRA.REPUL.0>
0

>  <SCORE.INTRA.VDW>
-6.4659

>  <SCORE.INTRA.VDW.0>
4.87734

>  <SCORE.INTRA.norm>
-0.213501

>  <SCORE.RESTR>
0

>  <SCORE.RESTR.CAVITY>
0

>  <SCORE.RESTR.norm>
0

>  <SCORE.SYSTEM>
-7.14087

>  <SCORE.SYSTEM.CONST>
0

>  <SCORE.SYSTEM.DIHEDRAL>
4.7687

>  <SCORE.SYSTEM.POLAR>
-1.77742

>  <SCORE.SYSTEM.REPUL>
0.0317952

>  <SCORE.SYSTEM.VDW>
-3.64095

>  <SCORE.SYSTEM.norm>
-0.297536

>  <SCORE.heavy>
24

>  <SCORE.norm>
-0.702759

$$$$
TOL.pdb
  rDOCK(R)          3D
libRbt.so/2013.1/901 2013/11/27
 25 26  0  0  0  0  0  0  0  0999 V2000
   22.3679   16.5512   76.2151 C   0  0  0  0  0  0
   22.1998   16.4929   77.5601 F   0  0  0  0  0  0
   23.3570   15.6727   75.9021 F   0  0  0  0  0  0
   21.2273   16.1005   75.6279 F   0  0  0  0  0  0
   22.6952   17.9852   75.7450 C   0  0  0  0  0  0
   22.0112   18.6472   74.6925 C   0  0  0  0  0  0
   21.0322   18.0283   74.0577 O   0  0  0  0  0  0
   21.4863   17.2613   72.9547 C   0  0  0  0  0  0
   22.3920   19.9599   74.3375 C   0  0  0  0  0  0
   23.4317   20.6112   75.0108 C   0  0  0  0  0  0
   24.1148   19.9563   76.0546 C   0  0  0  0  0  0
   25.1648   20.6250   76.7263 C   0  0  0  0  0  0
   25.8445   19.9721   77.7676 C   0  0  0  0  0  0
   25.4901   18.6728   78.1380 C   0  0  0  0  0  0
   24.4493   18.0151   77.4704 C   0  0  0  0  0  0
   23.7520   18.6473   76.4243 C   0  0  0  0  0  0
   25.6134   22.0283   76.3924 C   0  0  0  0  0  0
   26.6086   22.2917   75.0226 S   0  0  0  0  0  0
   25.2177   23.0459   77.1587 N   0  0  0  0  0  0
   24.2846   22.8085   78.2545 C   0  0  0  0  0  0
   25.6805   24.4093   76.9198 C   0  0  0  0  0  0
   27.0283   24.6792   77.6104 C   0  0  0  0  0  0
   27.1166   25.3458   78.6077 O   0  0  0  0  0  0
   28.0933   24.1154   77.0296 O   0  0  0  0  0  0
   28.9467   24.2380   77.3966 H   0  0  0  0  0  0
  1  2  1  0  0  0
  1  3  1  0  0  0
  1  4  1  0  0  0
  1  5  1  0  0  0
  5  6  2  0  0  0
  5 16  1  0  0  0
  6  7  1  0  0  0
  6  9  1  0  0  0
  7  8  1  0  0  0
  9 10  2  0  0  0
 10 11  1  0  0  0
 11 12  2  0  0  0
 11 16  1  0  0  0
 12 13  1  0  0  0
 12 17  1  0  0  0
 13 14  2  0  0  0
 14 15  1  0  0  0
 15 16  2  0  0  0
 17 18  2  0  0  0
 17 19  1  0  0  0
 19 20  1  0  0  0
 19 21  1  0  0  0
 21 22  1  0  0  0
 22 23  2  0  0  0
 22 24  1  0  0  0
 24 25  1  0  0  0
M  END
>  <CHROM.0>
-77.53464659,1.77396608,179.90639473,-178.96066915,170.12991908,-60.30329751
-59.47358397,63.11812934,-61.54190337,-171.75531552,-61.41326028,-60.50081437
126.42425519

>  <CHROM.1>
-129.44367283,-88.36457758,-78.15983632,-85.55599960,-105.39533117,179.99134555
24.26423106,20.09402448,76.26014319,-2.63675719,-0.90533943,-0.70978432

>  <FORMUL>
      TOL    C16 H14 F3 N1 O3 S1

>  <HET>
 TOL  A 320      24

>  <HETNAM>
     TOL TOLRESTAT

>  <Name>
TOL.pdb

>  <RI>
0

>  <Rbt.Current_Directory>
/home/malgorzata/Desktop/rDOCK_IFD/Wyniki/1b_aldose_reductase/IFD

>  <Rbt.Executable>
rbdock ($Id: //depot/dev/client3/rdock/2013.1/src/exe/rbdock.cxx#4 $)

>  <Rbt.Library>
libRbt.so (2013.1, Build901 2013/11/27)

>  <Rbt.Parameter_File>
/home/malgorzata/Desktop/rDock_2013.1_src/data/scripts/hard_docking.prm

>  <Rbt.Receptor>
cavity.prm

>  <SCORE>
-15.4307

>  <SCORE.INTER>
-5.96144

>  <SCORE.INTER.CONST>
1

>  <SCORE.INTER.POLAR>
-0.849436

>  <SCORE.INTER.REPUL>
0

>  <SCORE.INTER.ROT>
5

>  <SCORE.INTER.VDW>
-13.4734

>  <SCORE.INTER.norm>
-0.248393

>  <SCORE.INTRA>
-5.12159

>  <SCORE.INTRA.DIHEDRAL>
4.50712

>  <SCORE.INTRA.DIHEDRAL.0>
16.9783

>  <SCORE.INTRA.POLAR>
0

>  <SCORE.INTRA.POLAR.0>
0

>  <SCORE.INTRA.REPUL>
0

>  <SCORE.INTRA.REPUL.0>
0

>  <SCORE.INTRA.VDW>
-7.37515

>  <SCORE.INTRA.VDW.0>
4.87734

>  <SCORE.INTRA.norm>
-0.2134

>  <SCORE.RESTR>
0.242811

>  <SCORE.RESTR.CAVITY>
0.242811

>  <SCORE.RESTR.norm>
0.0101171

>  <SCORE.SYSTEM>
-4.59043

>  <SCORE.SYSTEM.CONST>
0

>  <SCORE.SYSTEM.DIHEDRAL>
3.1289

>  <SCORE.SYSTEM.POLAR>
-0.844396

>  <SCORE.SYSTEM.REPUL>
0.0217997

>  <SCORE.SYSTEM.VDW>
-3.39293

>  <SCORE.SYSTEM.norm>
-0.191268

>  <SCORE.heavy>
24

>  <SCORE.norm>
-0.642944

$$$$
TOL.pdb
  rDOCK(R)          3D
libRbt.so/2013.1/901 2013/11/27
 25 26  0  0  0  0  0  0  0  0999 V2000
   27.0742   24.3129   76.0819 C   0  0  0  0  0  0
   26.1845   24.8849   75.2321 F   0  0  0  0  0  0
   28.3080   24.7501   75.7151 F   0  0  0  0  0  0
   26.8313   24.7918   77.3311 F   0  0  0  0  0  0
   26.9735   22.7723   76.0576 C   0  0  0  0  0  0
   28.0241   21.9184   75.6321 C   0  0  0  0  0  0
   29.1678   22.4405   75.2273 O   0  0  0  0  0  0
   29.5283   22.0340   73.9174 C   0  0  0  0  0  0
   27.8277   20.5200   75.6451 C   0  0  0  0  0  0
   26.6134   19.9709   76.0722 C   0  0  0  0  0  0
   25.5672   20.8155   76.4930 C   0  0  0  0  0  0
   24.3442   20.2481   76.9211 C   0  0  0  0  0  0
   23.3021   21.0905   77.3416 C   0  0  0  0  0  0
   23.4683   22.4773   77.3370 C   0  0  0  0  0  0
   24.6813   23.0344   76.9130 C   0  0  0  0  0  0
   25.7413   22.2124   76.4874 C   0  0  0  0  0  0
   24.0781   18.7616   76.9590 C   0  0  0  0  0  0
   23.8323   17.9874   78.4677 S   0  0  0  0  0  0
   24.0233   18.0732   75.8177 N   0  0  0  0  0  0
   24.1293   18.7735   74.5426 C   0  0  0  0  0  0
   23.8396   16.6254   75.8051 C   0  0  0  0  0  0
   22.3582   16.2438   75.6430 C   0  0  0  0  0  0
   21.8560   16.0629   74.5650 O   0  0  0  0  0  0
   21.6697   16.1201   76.7832 O   0  0  0  0  0  0
   22.0879   16.2919   77.6039 H   0  0  0  0  0  0
  1  2  1  0  0  0
  1  3  1  0  0  0
  1  4  1  0  0  0
  1  5  1  0  0  0
  5  6  2  0  0  0
  5 16  1  0  0  0
  6  7  1  0  0  0
  6  9  1  0  0  0
  7  8  1  0  0  0
  9 10  2  0  0  0
 10 11  1  0  0  0
 11 12  2  0  0  0
 11 16  1  0  0  0
 12 13  1  0  0  0
 12 17  1  0  0  0
 13 14  2  0  0  0
 14 15  1  0  0  0
 15 16  2  0  0  0
 17 18  2  0  0  0
 17 19  1  0  0  0
 19 20  1  0  0  0
 19 21  1  0  0  0
 21 22  1  0  0  0
 22 23  2  0  0  0
 22 24  1  0  0  0
 24 25  1  0  0  0
M  END
>  <CHROM.0>
-76.87423449,-0.10833449,-175.02569222,-179.89082122,65.71175414,-85.60909757
-59.47358397,-177.49794548,-61.54190337,-169.30308617,-61.41326028,-60.50081437
124.84889375

>  <CHROM.1>
116.64137251,-123.76041514,114.36050479,94.67782053,90.94775470,2.05070036
25.36238001,20.66448773,76.21021149,0.83176725,0.53984582,0.35296104

>  <FORMUL>
      TOL    C16 H14 F3 N1 O3 S1

>  <HET>
 TOL  A 320      24

>  <HETNAM>
     TOL TOLRESTAT

>  <Name>
TOL.pdb

>  <RI>
0

>  <Rbt.Current_Directory>
/home/malgorzata/Desktop/rDOCK_IFD/Wyniki/1b_aldose_reductase/IFD

>  <Rbt.Executable>
rbdock ($Id: //depot/dev/client3/rdock/2013.1/src/exe/rbdock.cxx#4 $)

>  <Rbt.Library>
libRbt.so (2013.1, Build901 2013/11/27)

>  <Rbt.Parameter_File>
/home/malgorzata/Desktop/rDock_2013.1_src/data/scripts/hard_docking.prm

>  <Rbt.Receptor>
cavity.prm

>  <SCORE>
-14.3127

>  <SCORE.INTER>
-2.8174

>  <SCORE.INTER.CONST>
1

>  <SCORE.INTER.POLAR>
-0.312594

>  <SCORE.INTER.REPUL>
0

>  <SCORE.INTER.ROT>
5

>  <SCORE.INTER.VDW>
-12.1546

>  <SCORE.INTER.norm>
-0.117392

>  <SCORE.INTRA>
-5.54176

>  <SCORE.INTRA.DIHEDRAL>
1.55055

>  <SCORE.INTRA.DIHEDRAL.0>
16.9783

>  <SCORE.INTRA.POLAR>
-0.279596

>  <SCORE.INTRA.POLAR.0>
0

>  <SCORE.INTRA.REPUL>
0

>  <SCORE.INTRA.REPUL.0>
0

>  <SCORE.INTRA.VDW>
-5.36641

>  <SCORE.INTRA.VDW.0>
4.87734

>  <SCORE.INTRA.norm>
-0.230907

>  <SCORE.RESTR>
0.00951842

>  <SCORE.RESTR.CAVITY>
0.00951842

>  <SCORE.RESTR.norm>
0.000396601

>  <SCORE.SYSTEM>
-5.96305

>  <SCORE.SYSTEM.CONST>
0

>  <SCORE.SYSTEM.DIHEDRAL>
2.93372

>  <SCORE.SYSTEM.POLAR>
-0.937536

>  <SCORE.SYSTEM.REPUL>
0.0237657

>  <SCORE.SYSTEM.VDW>
-4.36111

>  <SCORE.SYSTEM.norm>
-0.24846

>  <SCORE.heavy>
24

>  <SCORE.norm>
-0.596362

$$$$
TOL.pdb
  rDOCK(R)          3D
libRbt.so/2013.1/901 2013/11/27
 25 26  0  0  0  0  0  0  0  0999 V2000
   27.1444   23.8153   75.9171 C   0  0  0  0  0  0
   28.3567   24.0851   75.3709 F   0  0  0  0  0  0
   27.1610   24.3143   77.1816 F   0  0  0  0  0  0
   26.2049   24.5098   75.2216 F   0  0  0  0  0  0
   26.8348   22.3027   75.8943 C   0  0  0  0  0  0
   27.6408   21.3410   75.2314 C   0  0  0  0  0  0
   28.7263   21.7299   74.5873 O   0  0  0  0  0  0
   28.6291   21.5538   73.1835 C   0  0  0  0  0  0
   27.2660   19.9800   75.2685 C   0  0  0  0  0  0
   26.1136   19.5725   75.9499 C   0  0  0  0  0  0
   25.3095   20.5245   76.6072 C   0  0  0  0  0  0
   24.1464   20.0999   77.2911 C   0  0  0  0  0  0
   23.3459   21.0494   77.9471 C   0  0  0  0  0  0
   23.6918   22.4024   77.9248 C   0  0  0  0  0  0
   24.8448   22.8179   77.2469 C   0  0  0  0  0  0
   25.6642   21.8866   76.5822 C   0  0  0  0  0  0
   23.6980   18.6594   77.3669 C   0  0  0  0  0  0
   23.7435   17.8403   78.8713 S   0  0  0  0  0  0
   23.2589   18.0477   76.2659 N   0  0  0  0  0  0
   23.1293   18.7984   75.0219 C   0  0  0  0  0  0
   22.8815   16.6379   76.2721 C   0  0  0  0  0  0
   24.1116   15.7228   76.3976 C   0  0  0  0  0  0
   24.1865   14.8583   77.2307 O   0  0  0  0  0  0
   25.0882   15.9501   75.5122 O   0  0  0  0  0  0
   25.8652   15.4265   75.5269 H   0  0  0  0  0  0
  1  2  1  0  0  0
  1  3  1  0  0  0
  1  4  1  0  0  0
  1  5  1  0  0  0
  5  6  2  0  0  0
  5 16  1  0  0  0
  6  7  1  0  0  0
  6  9  1  0  0  0
  7  8  1  0  0  0
  9 10  2  0  0  0
 10 11  1  0  0  0
 11 12  2  0  0  0
 11 16  1  0  0  0
 12 13  1  0  0  0
 12 17  1  0  0  0
 13 14  2  0  0  0
 14 15  1  0  0  0
 15 16  2  0  0  0
 17 18  2  0  0  0
 17 19  1  0  0  0
 19 20  1  0  0  0
 19 21  1  0  0  0
 21 22  1  0  0  0
 22 23  2  0  0  0
 22 24  1  0  0  0
 24 25  1  0  0  0
M  END
>  <CHROM.0>
-77.47730713,148.84876934,178.82789879,-179.01273974,65.88119133,-70.75364769
-59.47358397,64.13260633,-61.54190337,-68.42300187,-61.41326028,-60.50081437
-113.71078327

>  <CHROM.1>
-7.50821989,-113.15213562,112.16703916,-71.51309759,128.04977026,-179.62951911
25.46653286,20.31025624,76.34424912,0.90357090,0.69995056,0.25417799

>  <FORMUL>
      TOL    C16 H14 F3 N1 O3 S1

>  <HET>
 TOL  A 320      24

>  <HETNAM>
     TOL TOLRESTAT

>  <Name>
TOL.pdb

>  <RI>
0

>  <Rbt.Current_Directory>
/home/malgorzata/Desktop/rDOCK_IFD/Wyniki/1b_aldose_reductase/IFD

>  <Rbt.Executable>
rbdock ($Id: //depot/dev/client3/rdock/2013.1/src/exe/rbdock.cxx#4 $)

>  <Rbt.Library>
libRbt.so (2013.1, Build901 2013/11/27)

>  <Rbt.Parameter_File>
/home/malgorzata/Desktop/rDock_2013.1_src/data/scripts/hard_docking.prm

>  <Rbt.Receptor>
cavity.prm

>  <SCORE>
-16.5312

>  <SCORE.INTER>
-1.9995

>  <SCORE.INTER.CONST>
1

>  <SCORE.INTER.POLAR>
0

>  <SCORE.INTER.REPUL>
0

>  <SCORE.INTER.ROT>
5

>  <SCORE.INTER.VDW>
-12.3995

>  <SCORE.INTER.norm>
-0.0833124

>  <SCORE.INTRA>
-5.73187

>  <SCORE.INTRA.DIHEDRAL>
2.52628

>  <SCORE.INTRA.DIHEDRAL.0>
16.9783

>  <SCORE.INTRA.POLAR>
0

>  <SCORE.INTRA.POLAR.0>
0

>  <SCORE.INTRA.REPUL>
0

>  <SCORE.INTRA.REPUL.0>
0

>  <SCORE.INTRA.VDW>
-6.99501

>  <SCORE.INTRA.VDW.0>
4.87734

>  <SCORE.INTRA.norm>
-0.238828

>  <SCORE.RESTR>
0.0173478

>  <SCORE.RESTR.CAVITY>
0.0173478

>  <SCORE.RESTR.norm>
0.000722823

>  <SCORE.SYSTEM>
-8.81722

>  <SCORE.SYSTEM.CONST>
0

>  <SCORE.SYSTEM.DIHEDRAL>
4.10634

>  <SCORE.SYSTEM.POLAR>
-1.77771

>  <SCORE.SYSTEM.VDW>
-4.82617

>  <SCORE.SYSTEM.norm>
-0.367384

>  <SCORE.heavy>
24

>  <SCORE.norm>
-0.688801

$$$$
TOL.pdb
  rDOCK(R)          3D
libRbt.so/2013.1/901 2013/11/27
 25 26  0  0  0  0  0  0  0  0999 V2000
   27.9012   24.3021   76.1489 C   0  0  0  0  0  0
   28.4892   24.0120   77.3367 F   0  0  0  0  0  0
   27.5999   25.6276   76.1706 F   0  0  0  0  0  0
   28.8215   24.1136   75.1660 F   0  0  0  0  0  0
   26.6526   23.4272   75.9042 C   0  0  0  0  0  0
   25.3216   23.9163   75.9607 C   0  0  0  0  0  0
   25.1039   25.1896   76.2361 O   0  0  0  0  0  0
   24.9103   25.4307   77.6201 C   0  0  0  0  0  0
   24.2479   23.0300   75.7243 C   0  0  0  0  0  0
   24.4828   21.6809   75.4355 C   0  0  0  0  0  0
   25.8026   21.1911   75.3809 C   0  0  0  0  0  0
   26.0265   19.8252   75.0894 C   0  0  0  0  0  0
   27.3426   19.3378   75.0340 C   0  0  0  0  0  0
   28.4232   20.1918   75.2658 C   0  0  0  0  0  0
   28.1965   21.5436   75.5533 C   0  0  0  0  0  0
   26.8877   22.0571   75.6141 C   0  0  0  0  0  0
   24.9190   18.8324   74.8255 C   0  0  0  0  0  0
   24.7669   18.1332   73.2685 S   0  0  0  0  0  0
   24.0827   18.5015   75.8107 N   0  0  0  0  0  0
   24.2992   19.0289   77.1534 C   0  0  0  0  0  0
   22.9552   17.6021   75.5880 C   0  0  0  0  0  0
   23.3628   16.1289   75.7615 C   0  0  0  0  0  0
   24.4035   15.6969   75.3405 O   0  0  0  0  0  0
   22.4838   15.3642   76.4187 O   0  0  0  0  0  0
   22.6872   14.4680   76.6015 H   0  0  0  0  0  0
  1  2  1  0  0  0
  1  3  1  0  0  0
  1  4  1  0  0  0
  1  5  1  0  0  0
  5  6  2  0  0  0
  5 16  1  0  0  0
  6  7  1  0  0  0
  6  9  1  0  0  0
  7  8  1  0  0  0
  9 10  2  0  0  0
 10 11  1  0  0  0
 11 12  2  0  0  0
 11 16  1  0  0  0
 12 13  1  0  0  0
 12 17  1  0  0  0
 13 14  2  0  0  0
 14 15  1  0  0  0
 15 16  2  0  0  0
 17 18  2  0  0  0
 17 19  1  0  0  0
 19 20  1  0  0  0
 19 21  1  0  0  0
 21 22  1  0  0  0
 22 23  2  0  0  0
 22 24  1  0  0  0
 24 25  1  0  0  0
M  END
>  <CHROM.0>
-78.04548197,1.99930758,10.68479285,-75.95423116,-57.69904629,-71.26149727
-59.47358397,-178.81671104,-61.54190337,-69.91018264,-61.41326028,-60.50081437
119.14233468

>  <CHROM.1>
108.13407250,-92.32738641,113.97417690,87.21593837,-41.34283756,-176.69096912
25.72656481,20.95108241,75.66508058,-1.14646934,-0.29893461,-2.88307108

>  <FORMUL>
      TOL    C16 H14 F3 N1 O3 S1

>  <HET>
 TOL  A 320      24

>  <HETNAM>
     TOL TOLRESTAT

>  <Name>
TOL.pdb

>  <RI>
0

>  <Rbt.Current_Directory>
/home/malgorzata/Desktop/rDOCK_IFD/Wyniki/1b_aldose_reductase/IFD

>  <Rbt.Executable>
rbdock ($Id: //depot/dev/client3/rdock/2013.1/src/exe/rbdock.cxx#4 $)

>  <Rbt.Library>
libRbt.so (2013.1, Build901 2013/11/27)

>  <Rbt.Parameter_File>
/home/malgorzata/Desktop/rDock_2013.1_src/data/scripts/hard_docking.prm

>  <Rbt.Receptor>
cavity.prm

>  <SCORE>
-14.7837

>  <SCORE.INTER>
-4.83991

>  <SCORE.INTER.CONST>
1

>  <SCORE.INTER.POLAR>
-1.02612

>  <SCORE.INTER.REPUL>
0

>  <SCORE.INTER.ROT>
5

>  <SCORE.INTER.VDW>
-11.7511

>  <SCORE.INTER.norm>
-0.201663

>  <SCORE.INTRA>
-5.43586

>  <SCORE.INTRA.DIHEDRAL>
3.14158

>  <SCORE.INTRA.DIHEDRAL.0>
16.9783

>  <SCORE.INTRA.POLAR>
0

>  <SCORE.INTRA.POLAR.0>
0

>  <SCORE.INTRA.REPUL>
0

>  <SCORE.INTRA.REPUL.0>
0

>  <SCORE.INTRA.VDW>
-7.00664

>  <SCORE.INTRA.VDW.0>
4.87734

>  <SCORE.INTRA.norm>
-0.226494

>  <SCORE.RESTR>
0

>  <SCORE.RESTR.CAVITY>
0

>  <SCORE.RESTR.norm>
0

>  <SCORE.SYSTEM>
-4.50789

>  <SCORE.SYSTEM.CONST>
0

>  <SCORE.SYSTEM.DIHEDRAL>
4.19971

>  <SCORE.SYSTEM.POLAR>
-0.848724

>  <SCORE.SYSTEM.REPUL>
0.0215593

>  <SCORE.SYSTEM.VDW>
-3.82988

>  <SCORE.SYSTEM.norm>
-0.187829

>  <SCORE.heavy>
24

>  <SCORE.norm>
-0.615986

$$$$
TOL.pdb
  rDOCK(R)          3D
libRbt.so/2013.1/901 2013/11/27
 25 26  0  0  0  0  0  0  0  0999 V2000
   32.0973   27.9302   80.6538 C   0  0  0  0  0  0
   31.4250   28.6054   81.6196 F   0  0  0  0  0  0
   32.3232   28.8092   79.6416 F   0  0  0  0  0  0
   33.3094   27.5726   81.1556 F   0  0  0  0  0  0
   31.3137   26.6873   80.1789 C   0  0  0  0  0  0
   30.1241   26.2199   80.7957 C   0  0  0  0  0  0
   29.6322   26.8634   81.8390 O   0  0  0  0  0  0
   29.9914   26.2687   83.0752 C   0  0  0  0  0  0
   29.4857   25.0688   80.2845 C   0  0  0  0  0  0
   30.0118   24.3883   79.1805 C   0  0  0  0  0  0
   31.1939   24.8478   78.5670 C   0  0  0  0  0  0
   31.7161   24.1502   77.4528 C   0  0  0  0  0  0
   32.8940   24.6095   76.8409 C   0  0  0  0  0  0
   33.5473   25.7442   77.3272 C   0  0  0  0  0  0
   33.0259   26.4320   78.4302 C   0  0  0  0  0  0
   31.8470   25.9929   79.0609 C   0  0  0  0  0  0
   31.0758   22.9164   76.8615 C   0  0  0  0  0  0
   30.6866   21.5968   77.8829 S   0  0  0  0  0  0
   30.8081   22.8751   75.5554 N   0  0  0  0  0  0
   31.0507   24.0517   74.7279 C   0  0  0  0  0  0
   30.2556   21.6807   74.9245 C   0  0  0  0  0  0
   28.7198   21.6552   75.0074 C   0  0  0  0  0  0
   28.1360   21.4186   76.0322 O   0  0  0  0  0  0
   28.0792   21.9213   73.8637 O   0  0  0  0  0  0
   27.1428   21.9529   73.8475 H   0  0  0  0  0  0
  1  2  1  0  0  0
  1  3  1  0  0  0
  1  4  1  0  0  0
  1  5  1  0  0  0
  5  6  2  0  0  0
  5 16  1  0  0  0
  6  7  1  0  0  0
  6  9  1  0  0  0
  7  8  1  0  0  0
  9 10  2  0  0  0
 10 11  1  0  0  0
 11 12  2  0  0  0
 11 16  1  0  0  0
 12 13  1  0  0  0
 12 17  1  0  0  0
 13 14  2  0  0  0
 14 15  1  0  0  0
 15 16  2  0  0  0
 17 18  2  0  0  0
 17 19  1  0  0  0
 19 20  1  0  0  0
 19 21  1  0  0  0
 21 22  1  0  0  0
 22 23  2  0  0  0
 22 24  1  0  0  0
 24 25  1  0  0  0
M  END
>  <CHROM.0>
-79.47137001,-0.32931912,-176.99810420,-178.15117963,169.66272201,-94.17421932
-59.47358397,-179.75333000,-61.54190337,-172.42160088,-61.41326028,-60.50081437
83.63749543

>  <CHROM.1>
-7.46149847,-98.01900418,-51.95395833,86.73505492,-73.74103563,-177.83986921
30.92681097,24.86088788,78.41218847,-1.26552388,-0.64680262,-2.16059513

>  <FORMUL>
      TOL    C16 H14 F3 N1 O3 S1

>  <HET>
 TOL  A 320      24

>  <HETNAM>
     TOL TOLRESTAT

>  <Name>
TOL.pdb

>  <RI>
0

>  <Rbt.Current_Directory>
/home/malgorzata/Desktop/rDOCK_IFD/Wyniki/1b_aldose_reductase/IFD

>  <Rbt.Executable>
rbdock ($Id: //depot/dev/client3/rdock/2013.1/src/exe/rbdock.cxx#4 $)

>  <Rbt.Library>
libRbt.so (2013.1, Build901 2013/11/27)

>  <Rbt.Parameter_File>
/home/malgorzata/Desktop/rDock_2013.1_src/data/scripts/hard_docking.prm

>  <Rbt.Receptor>
cavity.prm

>  <SCORE>
-13.2462

>  <SCORE.INTER>
-3.81122

>  <SCORE.INTER.CONST>
1

>  <SCORE.INTER.POLAR>
-0.551765

>  <SCORE.INTER.REPUL>
0

>  <SCORE.INTER.ROT>
5

>  <SCORE.INTER.VDW>
-12.3352

>  <SCORE.INTER.norm>
-0.158801

>  <SCORE.INTRA>
-5.05081

>  <SCORE.INTRA.DIHEDRAL>
0.268282

>  <SCORE.INTRA.DIHEDRAL.0>
16.9783

>  <SCORE.INTRA.POLAR>
0

>  <SCORE.INTRA.POLAR.0>
0

>  <SCORE.INTRA.REPUL>
0

>  <SCORE.INTRA.REPUL.0>
0

>  <SCORE.INTRA.VDW>
-5.18495

>  <SCORE.INTRA.VDW.0>
4.87734

>  <SCORE.INTRA.norm>
-0.21045

>  <SCORE.RESTR>
0

>  <SCORE.RESTR.CAVITY>
0

>  <SCORE.RESTR.norm>
0

>  <SCORE.SYSTEM>
-4.38415

>  <SCORE.SYSTEM.CONST>
0

>  <SCORE.SYSTEM.DIHEDRAL>
3.38772

>  <SCORE.SYSTEM.POLAR>
-0.859564

>  <SCORE.SYSTEM.REPUL>
0.0239915

>  <SCORE.SYSTEM.VDW>
-3.27545

>  <SCORE.SYSTEM.norm>
-0.182673

>  <SCORE.heavy>
24

>  <SCORE.norm>
-0.551924

$$$$
TOL.pdb
  rDOCK(R)          3D
libRbt.so/2013.1/901 2013/11/27
 25 26  0  0  0  0  0  0  0  0999 V2000
   26.9016   24.7224   76.6584 C   0  0  0  0  0  0
   25.9570   24.0385   77.3519 F   0  0  0  0  0  0
   27.2129   23.9712   75.5690 F   0  0  0  0  0  0
   26.3402   25.8754   76.2065 F   0  0  0  0  0  0
   28.1405   25.0222   77.5298 C   0  0  0  0  0  0
   29.4503   24.5698   77.2235 C   0  0  0  0  0  0
   29.6553   23.8480   76.1365 O   0  0  0  0  0  0
   29.8620   22.4733   76.4165 C   0  0  0  0  0  0
   30.5159   24.8968   78.0905 C   0  0  0  0  0  0
   30.2940   25.6595   79.2426 C   0  0  0  0  0  0
   28.9948   26.1084   79.5514 C   0  0  0  0  0  0
   28.7835   26.8773   80.7198 C   0  0  0  0  0  0
   27.4882   27.3255   81.0264 C   0  0  0  0  0  0
   26.4155   27.0149   80.1876 C   0  0  0  0  0  0
   26.6298   26.2539   79.0316 C   0  0  0  0  0  0
   27.9178   25.7932   78.7014 C   0  0  0  0  0  0
   29.8839   27.2596   81.6815 C   0  0  0  0  0  0
   30.7580   28.7115   81.4285 S   0  0  0  0  0  0
   30.1516   26.4704   82.7231 N   0  0  0  0  0  0
   29.3228   25.2969   82.9756 C   0  0  0  0  0  0
   31.2500   26.7589   83.6398 C   0  0  0  0  0  0
   32.6173   26.4916   82.9874 C   0  0  0  0  0  0
   33.5051   27.3031   83.0017 O   0  0  0  0  0  0
   32.7528   25.2925   82.4103 O   0  0  0  0  0  0
   33.5717   25.0470   82.0269 H   0  0  0  0  0  0
  1  2  1  0  0  0
  1  3  1  0  0  0
  1  4  1  0  0  0
  1  5  1  0  0  0
  5  6  2  0  0  0
  5 16  1  0  0  0
  6  7  1  0  0  0
  6  9  1  0  0  0
  7  8  1  0  0  0
  9 10  2  0  0  0
 10 11  1  0  0  0
 11 12  2  0  0  0
 11 16  1  0  0  0
 12 13  1  0  0  0
 12 17  1  0  0  0
 13 14  2  0  0  0
 14 15  1  0  0  0
 15 16  2  0  0  0
 17 18  2  0  0  0
 17 19  1  0  0  0
 19 20  1  0  0  0
 19 21  1  0  0  0
 21 22  1  0  0  0
 22 23  2  0  0  0
 22 24  1  0  0  0
 24 25  1  0  0  0
M  END
>  <CHROM.0>
-76.76679334,148.33585209,178.00643997,63.05348840,65.00603915,73.15697748
-59.47358397,61.90883514,-61.54190337,-70.30883546,-61.41326028,-60.50081437
89.12805502

>  <CHROM.1>
120.09161441,-105.06734750,89.17829598,-72.11458468,129.46279665,-177.28048642
29.24477693,25.82547508,79.59472321,2.16508600,0.33389158,-2.18823375

>  <FORMUL>
      TOL    C16 H14 F3 N1 O3 S1

>  <HET>
 TOL  A 320      24

>  <HETNAM>
     TOL TOLRESTAT

>  <Name>
TOL.pdb

>  <RI>
0

>  <Rbt.Current_Directory>
/home/malgorzata/Desktop/rDOCK_IFD/Wyniki/1b_aldose_reductase/IFD

>  <Rbt.Executable>
rbdock ($Id: //depot/dev/client3/rdock/2013.1/src/exe/rbdock.cxx#4 $)

>  <Rbt.Library>
libRbt.so (2013.1, Build901 2013/11/27)

>  <Rbt.Parameter_File>
/home/malgorzata/Desktop/rDock_2013.1_src/data/scripts/hard_docking.prm

>  <Rbt.Receptor>
cavity.prm

>  <SCORE>
-20.4126

>  <SCORE.INTER>
-6.48023

>  <SCORE.INTER.CONST>
1

>  <SCORE.INTER.POLAR>
0

>  <SCORE.INTER.REPUL>
0

>  <SCORE.INTER.ROT>
5

>  <SCORE.INTER.VDW>
-16.8802

>  <SCORE.INTER.norm>
-0.270009

>  <SCORE.INTRA>
-5.41272

>  <SCORE.INTRA.DIHEDRAL>
4.75465

>  <SCORE.INTRA.DIHEDRAL.0>
16.9783

>  <SCORE.INTRA.POLAR>
0

>  <SCORE.INTRA.POLAR.0>
0

>  <SCORE.INTRA.REPUL>
0

>  <SCORE.INTRA.REPUL.0>
0

>  <SCORE.INTRA.VDW>
-7.79005

>  <SCORE.INTRA.VDW.0>
4.87734

>  <SCORE.INTRA.norm>
-0.22553

>  <SCORE.RESTR>
0

>  <SCORE.RESTR.CAVITY>
0

>  <SCORE.RESTR.norm>
0

>  <SCORE.SYSTEM>
-8.51963

>  <SCORE.SYSTEM.CONST>
0

>  <SCORE.SYSTEM.DIHEDRAL>
4.16067

>  <SCORE.SYSTEM.POLAR>
-1.76719

>  <SCORE.SYSTEM.VDW>
-4.59153

>  <SCORE.SYSTEM.norm>
-0.354985

>  <SCORE.heavy>
24

>  <SCORE.norm>
-0.850524

$$$$
